/*---------------------------------------------------------------------------*\
| =========                 |                                                 |
| \\      /  F ield         | OpenFOAM: The Open Source CFD Toolbox           |
|  \\    /   O peration     | Version:  2506                                  |
|   \\  /    A nd           | Website:  www.openfoam.com                      |
|    \\/     M anipulation  |                                                 |
\*---------------------------------------------------------------------------*/
Build  : _f917e866-20250814 OPENFOAM=2506 patch=250814 version=2506
Arch   : "LSB;label=32;scalar=64"
Exec   : simpleFoam
Date   : Jul 16 2026
Time   : 16:00:24
Host   : matheus-PCH-B550M-CR
PID    : 152265
I/O    : uncollated
Case   : /home/matheus/Documentos/Mestrado/modelagem_computacional/bfsDifFinitas/bfs2dData
nProcs : 1
trapFpe: Floating point exception trapping enabled (FOAM_SIGFPE).
fileModificationChecking : Monitoring run-time modified files using timeStampMaster (fileModificationSkew 5, maxFileModificationPolls 20)
allowSystemOperations : Allowing user-supplied system call operations

// * * * * * * * * * * * * * * * * * * * * * * * * * * * * * * * * * * * * * //
Create time

Create mesh for time = 0


SIMPLE: convergence criteria
    field p	 tolerance 0.0001
    field U	 tolerance 1e-06
    field "(k|epsilon|omega|f|v2)"	 tolerance 1e-05

Reading field p

Reading field U

Reading/calculating face flux field phi

Selecting incompressible transport model Newtonian
Selecting turbulence model type laminar
Selecting laminar stress model Stokes
No MRF models present

No finite volume options present

Starting time loop

Sampled set:
    Uref -> csv
    x_by_h_m4 -> csv
    x_by_h_1 -> csv
    x_by_h_2 -> csv
    x_by_h_4 -> csv
    x_by_h_6 -> csv
    x_by_h_8 -> csv
    x_by_h_10 -> csv
    x_by_h_12 -> csv
    x_by_h_15 -> csv
    x_by_h_20 -> csv
    x_by_h_25 -> csv
    x_by_h_30 -> csv
    x_by_h_40 -> csv

Time = 1

smoothSolver:  Solving for Ux, Initial residual = 1, Final residual = 0.0961709, No Iterations 3
smoothSolver:  Solving for Uy, Initial residual = 1, Final residual = 0.0646192, No Iterations 2
GAMG:  Solving for p, Initial residual = 1, Final residual = 0.0597054, No Iterations 10
time step continuity errors : sum local = 1.11567, global = -0.124731, cumulative = -0.124731
ExecutionTime = 0.32 s  ClockTime = 1 s

Time = 2

smoothSolver:  Solving for Ux, Initial residual = 0.0154563, Final residual = 0.00148893, No Iterations 3
smoothSolver:  Solving for Uy, Initial residual = 0.035884, Final residual = 0.00351555, No Iterations 3
GAMG:  Solving for p, Initial residual = 0.059868, Final residual = 0.00413328, No Iterations 3
time step continuity errors : sum local = 4.26388, global = -0.382548, cumulative = -0.507279
ExecutionTime = 0.34 s  ClockTime = 1 s

Time = 3

smoothSolver:  Solving for Ux, Initial residual = 0.00586126, Final residual = 0.000529359, No Iterations 3
smoothSolver:  Solving for Uy, Initial residual = 0.284813, Final residual = 0.0120268, No Iterations 3
GAMG:  Solving for p, Initial residual = 0.178501, Final residual = 0.0133143, No Iterations 2
time step continuity errors : sum local = 3.94371, global = 0.603936, cumulative = 0.0966578
ExecutionTime = 0.36 s  ClockTime = 1 s

Time = 4

smoothSolver:  Solving for Ux, Initial residual = 0.00335798, Final residual = 0.000302125, No Iterations 3
smoothSolver:  Solving for Uy, Initial residual = 0.060718, Final residual = 0.00306386, No Iterations 3
GAMG:  Solving for p, Initial residual = 0.174486, Final residual = 0.0161385, No Iterations 2
time step continuity errors : sum local = 1.93832, global = 0.560419, cumulative = 0.657076
ExecutionTime = 0.37 s  ClockTime = 1 s

Time = 5

smoothSolver:  Solving for Ux, Initial residual = 0.00286247, Final residual = 0.000246367, No Iterations 3
smoothSolver:  Solving for Uy, Initial residual = 0.0473387, Final residual = 0.00463662, No Iterations 2
GAMG:  Solving for p, Initial residual = 0.155496, Final residual = 0.00843345, No Iterations 2
time step continuity errors : sum local = 0.634838, global = 0.141928, cumulative = 0.799004
ExecutionTime = 0.39 s  ClockTime = 1 s

Time = 6

smoothSolver:  Solving for Ux, Initial residual = 0.00248511, Final residual = 0.000214868, No Iterations 3
smoothSolver:  Solving for Uy, Initial residual = 0.0770204, Final residual = 0.00724108, No Iterations 2
GAMG:  Solving for p, Initial residual = 0.0999577, Final residual = 0.00839992, No Iterations 2
time step continuity errors : sum local = 0.648866, global = 0.106131, cumulative = 0.905135
ExecutionTime = 0.4 s  ClockTime = 1 s

Time = 7

smoothSolver:  Solving for Ux, Initial residual = 0.00222064, Final residual = 0.000215929, No Iterations 3
smoothSolver:  Solving for Uy, Initial residual = 0.0608494, Final residual = 0.00597391, No Iterations 2
GAMG:  Solving for p, Initial residual = 0.0994285, Final residual = 0.00861727, No Iterations 2
time step continuity errors : sum local = 0.459586, global = 0.0269658, cumulative = 0.932101
ExecutionTime = 0.43 s  ClockTime = 1 s

Time = 8

smoothSolver:  Solving for Ux, Initial residual = 0.00209052, Final residual = 0.000127363, No Iterations 4
smoothSolver:  Solving for Uy, Initial residual = 0.0476295, Final residual = 0.00471543, No Iterations 2
GAMG:  Solving for p, Initial residual = 0.101601, Final residual = 0.00831724, No Iterations 2
time step continuity errors : sum local = 0.346954, global = -0.00129121, cumulative = 0.930809
ExecutionTime = 0.44 s  ClockTime = 1 s

Time = 9

smoothSolver:  Solving for Ux, Initial residual = 0.00197659, Final residual = 0.000126252, No Iterations 4
smoothSolver:  Solving for Uy, Initial residual = 0.0404649, Final residual = 0.00169522, No Iterations 3
GAMG:  Solving for p, Initial residual = 0.0943371, Final residual = 0.00502567, No Iterations 2
time step continuity errors : sum local = 0.198855, global = -0.0297778, cumulative = 0.901032
ExecutionTime = 0.46 s  ClockTime = 1 s

Time = 10

smoothSolver:  Solving for Ux, Initial residual = 0.00188037, Final residual = 0.000121174, No Iterations 4
smoothSolver:  Solving for Uy, Initial residual = 0.0354693, Final residual = 0.00348903, No Iterations 2
GAMG:  Solving for p, Initial residual = 0.0863906, Final residual = 0.00447136, No Iterations 2
time step continuity errors : sum local = 0.169223, global = -0.029509, cumulative = 0.871523
ExecutionTime = 0.48 s  ClockTime = 1 s

Time = 11

smoothSolver:  Solving for Ux, Initial residual = 0.00179445, Final residual = 0.000118438, No Iterations 4
smoothSolver:  Solving for Uy, Initial residual = 0.0329171, Final residual = 0.00328319, No Iterations 2
GAMG:  Solving for p, Initial residual = 0.0841114, Final residual = 0.00473704, No Iterations 2
time step continuity errors : sum local = 0.173642, global = -0.0190651, cumulative = 0.852458
ExecutionTime = 0.5 s  ClockTime = 1 s

Time = 12

smoothSolver:  Solving for Ux, Initial residual = 0.00172361, Final residual = 0.000115426, No Iterations 4
smoothSolver:  Solving for Uy, Initial residual = 0.0311699, Final residual = 0.00127404, No Iterations 3
GAMG:  Solving for p, Initial residual = 0.0810521, Final residual = 0.00432974, No Iterations 2
time step continuity errors : sum local = 0.156404, global = -0.0141074, cumulative = 0.83835
ExecutionTime = 0.51 s  ClockTime = 1 s

Time = 13

smoothSolver:  Solving for Ux, Initial residual = 0.00165935, Final residual = 0.000112477, No Iterations 4
smoothSolver:  Solving for Uy, Initial residual = 0.0277263, Final residual = 0.00273304, No Iterations 2
GAMG:  Solving for p, Initial residual = 0.0708869, Final residual = 0.00467216, No Iterations 2
time step continuity errors : sum local = 0.169044, global = -0.0017626, cumulative = 0.836588
ExecutionTime = 0.53 s  ClockTime = 1 s

Time = 14

smoothSolver:  Solving for Ux, Initial residual = 0.00159197, Final residual = 0.000109402, No Iterations 4
smoothSolver:  Solving for Uy, Initial residual = 0.0264637, Final residual = 0.00109839, No Iterations 3
GAMG:  Solving for p, Initial residual = 0.0657168, Final residual = 0.00401235, No Iterations 2
time step continuity errors : sum local = 0.148961, global = 0.00338962, cumulative = 0.839977
ExecutionTime = 0.54 s  ClockTime = 1 s

Time = 15

smoothSolver:  Solving for Ux, Initial residual = 0.00154367, Final residual = 0.000107215, No Iterations 4
smoothSolver:  Solving for Uy, Initial residual = 0.0239157, Final residual = 0.00101, No Iterations 3
GAMG:  Solving for p, Initial residual = 0.0584311, Final residual = 0.00315974, No Iterations 2
time step continuity errors : sum local = 0.122407, global = 0.0064152, cumulative = 0.846392
ExecutionTime = 0.57 s  ClockTime = 1 s

Time = 16

smoothSolver:  Solving for Ux, Initial residual = 0.00149157, Final residual = 0.000104187, No Iterations 4
smoothSolver:  Solving for Uy, Initial residual = 0.0224931, Final residual = 0.000975763, No Iterations 3
GAMG:  Solving for p, Initial residual = 0.050743, Final residual = 0.00473555, No Iterations 1
time step continuity errors : sum local = 0.194851, global = -0.0471979, cumulative = 0.799194
ExecutionTime = 0.58 s  ClockTime = 1 s

Time = 17

smoothSolver:  Solving for Ux, Initial residual = 0.00143973, Final residual = 9.96961e-05, No Iterations 4
smoothSolver:  Solving for Uy, Initial residual = 0.021195, Final residual = 0.00095734, No Iterations 3
GAMG:  Solving for p, Initial residual = 0.0516555, Final residual = 0.00315192, No Iterations 2
time step continuity errors : sum local = 0.129789, global = -0.0315858, cumulative = 0.767609
ExecutionTime = 0.6 s  ClockTime = 1 s

Time = 18

smoothSolver:  Solving for Ux, Initial residual = 0.00139676, Final residual = 9.65032e-05, No Iterations 4
smoothSolver:  Solving for Uy, Initial residual = 0.0197714, Final residual = 0.000925526, No Iterations 3
GAMG:  Solving for p, Initial residual = 0.0432905, Final residual = 0.00334723, No Iterations 1
time step continuity errors : sum local = 0.147537, global = -0.0420245, cumulative = 0.725584
ExecutionTime = 0.61 s  ClockTime = 1 s

Time = 19

smoothSolver:  Solving for Ux, Initial residual = 0.00134798, Final residual = 9.2137e-05, No Iterations 4
smoothSolver:  Solving for Uy, Initial residual = 0.0189195, Final residual = 0.00091339, No Iterations 3
GAMG:  Solving for p, Initial residual = 0.0427675, Final residual = 0.00187283, No Iterations 2
time step continuity errors : sum local = 0.0834147, global = -0.0112936, cumulative = 0.71429
ExecutionTime = 0.64 s  ClockTime = 1 s

Time = 20

smoothSolver:  Solving for Ux, Initial residual = 0.00130322, Final residual = 8.90156e-05, No Iterations 4
smoothSolver:  Solving for Uy, Initial residual = 0.0178962, Final residual = 0.000883612, No Iterations 3
GAMG:  Solving for p, Initial residual = 0.0368171, Final residual = 0.00260388, No Iterations 1
time step continuity errors : sum local = 0.121125, global = -0.0154936, cumulative = 0.698797
ExecutionTime = 0.65 s  ClockTime = 1 s

Time = 21

smoothSolver:  Solving for Ux, Initial residual = 0.00125604, Final residual = 8.5608e-05, No Iterations 4
smoothSolver:  Solving for Uy, Initial residual = 0.0168395, Final residual = 0.00086045, No Iterations 3
GAMG:  Solving for p, Initial residual = 0.0368435, Final residual = 0.00165336, No Iterations 2
time step continuity errors : sum local = 0.0768705, global = 0.0083714, cumulative = 0.707168
ExecutionTime = 0.67 s  ClockTime = 1 s

Time = 22

smoothSolver:  Solving for Ux, Initial residual = 0.00120923, Final residual = 8.27582e-05, No Iterations 4
smoothSolver:  Solving for Uy, Initial residual = 0.0158631, Final residual = 0.000821236, No Iterations 3
GAMG:  Solving for p, Initial residual = 0.0324653, Final residual = 0.00281324, No Iterations 1
time step continuity errors : sum local = 0.129691, global = 0.023516, cumulative = 0.730684
ExecutionTime = 0.68 s  ClockTime = 1 s

Time = 23

smoothSolver:  Solving for Ux, Initial residual = 0.00116381, Final residual = 7.97066e-05, No Iterations 4
smoothSolver:  Solving for Uy, Initial residual = 0.0150247, Final residual = 0.000797095, No Iterations 3
GAMG:  Solving for p, Initial residual = 0.0325342, Final residual = 0.00213422, No Iterations 2
time step continuity errors : sum local = 0.097705, global = 0.00292335, cumulative = 0.733608
ExecutionTime = 0.71 s  ClockTime = 1 s

Time = 24

smoothSolver:  Solving for Ux, Initial residual = 0.00111724, Final residual = 7.58358e-05, No Iterations 4
smoothSolver:  Solving for Uy, Initial residual = 0.0143857, Final residual = 0.000765789, No Iterations 3
GAMG:  Solving for p, Initial residual = 0.0303242, Final residual = 0.00251017, No Iterations 1
time step continuity errors : sum local = 0.105355, global = 0.0173623, cumulative = 0.75097
ExecutionTime = 0.72 s  ClockTime = 1 s

Time = 25

smoothSolver:  Solving for Ux, Initial residual = 0.00107766, Final residual = 7.29683e-05, No Iterations 4
smoothSolver:  Solving for Uy, Initial residual = 0.0136324, Final residual = 0.000748097, No Iterations 3
GAMG:  Solving for p, Initial residual = 0.0287515, Final residual = 0.00155172, No Iterations 2
time step continuity errors : sum local = 0.0647663, global = 0.00398137, cumulative = 0.754951
ExecutionTime = 0.74 s  ClockTime = 1 s

Time = 26

smoothSolver:  Solving for Ux, Initial residual = 0.00103756, Final residual = 6.96525e-05, No Iterations 4
smoothSolver:  Solving for Uy, Initial residual = 0.0130672, Final residual = 0.000728298, No Iterations 3
GAMG:  Solving for p, Initial residual = 0.0257919, Final residual = 0.00257857, No Iterations 1
time step continuity errors : sum local = 0.0991326, global = 0.0162478, cumulative = 0.771199
ExecutionTime = 0.75 s  ClockTime = 1 s

Time = 27

smoothSolver:  Solving for Ux, Initial residual = 0.00100355, Final residual = 6.69684e-05, No Iterations 4
smoothSolver:  Solving for Uy, Initial residual = 0.0123987, Final residual = 0.000701404, No Iterations 3
GAMG:  Solving for p, Initial residual = 0.0251518, Final residual = 0.00122798, No Iterations 2
time step continuity errors : sum local = 0.0466407, global = 0.0176077, cumulative = 0.788807
ExecutionTime = 0.77 s  ClockTime = 1 s

Time = 28

smoothSolver:  Solving for Ux, Initial residual = 0.000970218, Final residual = 6.41743e-05, No Iterations 4
smoothSolver:  Solving for Uy, Initial residual = 0.0119579, Final residual = 0.00066619, No Iterations 3
GAMG:  Solving for p, Initial residual = 0.0209598, Final residual = 0.000961475, No Iterations 2
time step continuity errors : sum local = 0.0349934, global = 0.0116353, cumulative = 0.800442
ExecutionTime = 0.79 s  ClockTime = 1 s

Time = 29

smoothSolver:  Solving for Ux, Initial residual = 0.000941707, Final residual = 6.16704e-05, No Iterations 4
smoothSolver:  Solving for Uy, Initial residual = 0.0113908, Final residual = 0.000639573, No Iterations 3
GAMG:  Solving for p, Initial residual = 0.0187306, Final residual = 0.000712195, No Iterations 2
time step continuity errors : sum local = 0.0248919, global = 0.00861477, cumulative = 0.809057
ExecutionTime = 0.81 s  ClockTime = 1 s

Time = 30

smoothSolver:  Solving for Ux, Initial residual = 0.000914995, Final residual = 5.93571e-05, No Iterations 4
smoothSolver:  Solving for Uy, Initial residual = 0.0109859, Final residual = 0.000619607, No Iterations 3
GAMG:  Solving for p, Initial residual = 0.0169446, Final residual = 0.000904691, No Iterations 2
time step continuity errors : sum local = 0.0309853, global = 0.00899716, cumulative = 0.818054
ExecutionTime = 0.82 s  ClockTime = 1 s

Time = 31

smoothSolver:  Solving for Ux, Initial residual = 0.000890761, Final residual = 5.72795e-05, No Iterations 4
smoothSolver:  Solving for Uy, Initial residual = 0.0105922, Final residual = 0.000594845, No Iterations 3
GAMG:  Solving for p, Initial residual = 0.0153689, Final residual = 0.000927484, No Iterations 2
time step continuity errors : sum local = 0.0311884, global = 0.00804156, cumulative = 0.826096
ExecutionTime = 0.85 s  ClockTime = 1 s

Time = 32

smoothSolver:  Solving for Ux, Initial residual = 0.000868554, Final residual = 5.53997e-05, No Iterations 4
smoothSolver:  Solving for Uy, Initial residual = 0.0102352, Final residual = 0.000570849, No Iterations 3
GAMG:  Solving for p, Initial residual = 0.0138172, Final residual = 0.000854693, No Iterations 2
time step continuity errors : sum local = 0.028208, global = 0.00619286, cumulative = 0.832288
ExecutionTime = 0.86 s  ClockTime = 1 s

Time = 33

smoothSolver:  Solving for Ux, Initial residual = 0.000848339, Final residual = 5.36413e-05, No Iterations 4
smoothSolver:  Solving for Uy, Initial residual = 0.00993713, Final residual = 0.000551019, No Iterations 3
GAMG:  Solving for p, Initial residual = 0.0124563, Final residual = 0.00080842, No Iterations 2
time step continuity errors : sum local = 0.0262671, global = 0.00475337, cumulative = 0.837042
ExecutionTime = 0.88 s  ClockTime = 1 s

Time = 34

smoothSolver:  Solving for Ux, Initial residual = 0.000830116, Final residual = 5.19806e-05, No Iterations 4
smoothSolver:  Solving for Uy, Initial residual = 0.00966733, Final residual = 0.000532885, No Iterations 3
GAMG:  Solving for p, Initial residual = 0.0114179, Final residual = 0.000786387, No Iterations 2
time step continuity errors : sum local = 0.0252356, global = 0.00399531, cumulative = 0.841037
ExecutionTime = 0.89 s  ClockTime = 1 s

Time = 35

smoothSolver:  Solving for Ux, Initial residual = 0.000813371, Final residual = 5.04303e-05, No Iterations 4
smoothSolver:  Solving for Uy, Initial residual = 0.00940878, Final residual = 0.000515162, No Iterations 3
GAMG:  Solving for p, Initial residual = 0.0106625, Final residual = 0.000759341, No Iterations 2
time step continuity errors : sum local = 0.0241103, global = 0.00365897, cumulative = 0.844696
ExecutionTime = 0.92 s  ClockTime = 1 s

Time = 36

smoothSolver:  Solving for Ux, Initial residual = 0.000797806, Final residual = 4.89609e-05, No Iterations 4
smoothSolver:  Solving for Uy, Initial residual = 0.0091627, Final residual = 0.000498699, No Iterations 3
GAMG:  Solving for p, Initial residual = 0.0101279, Final residual = 0.000732137, No Iterations 2
time step continuity errors : sum local = 0.0229839, global = 0.003568, cumulative = 0.848264
ExecutionTime = 0.93 s  ClockTime = 1 s

Time = 37

smoothSolver:  Solving for Ux, Initial residual = 0.000783274, Final residual = 4.75722e-05, No Iterations 4
smoothSolver:  Solving for Uy, Initial residual = 0.00893509, Final residual = 0.000483716, No Iterations 3
GAMG:  Solving for p, Initial residual = 0.00973437, Final residual = 0.000712578, No Iterations 2
time step continuity errors : sum local = 0.0221056, global = 0.00357579, cumulative = 0.85184
ExecutionTime = 0.95 s  ClockTime = 1 s

Time = 38

smoothSolver:  Solving for Ux, Initial residual = 0.000769662, Final residual = 4.62534e-05, No Iterations 4
smoothSolver:  Solving for Uy, Initial residual = 0.00872489, Final residual = 0.000470526, No Iterations 3
GAMG:  Solving for p, Initial residual = 0.00942204, Final residual = 0.000703903, No Iterations 2
time step continuity errors : sum local = 0.0215764, global = 0.003582, cumulative = 0.855422
ExecutionTime = 0.97 s  ClockTime = 1 s

Time = 39

smoothSolver:  Solving for Ux, Initial residual = 0.000756919, Final residual = 4.50127e-05, No Iterations 4
smoothSolver:  Solving for Uy, Initial residual = 0.00853149, Final residual = 0.000458952, No Iterations 3
GAMG:  Solving for p, Initial residual = 0.00918194, Final residual = 0.000701377, No Iterations 2
time step continuity errors : sum local = 0.0212479, global = 0.00357723, cumulative = 0.858999
ExecutionTime = 0.98 s  ClockTime = 1 s

Time = 40

smoothSolver:  Solving for Ux, Initial residual = 0.000744953, Final residual = 4.38463e-05, No Iterations 4
smoothSolver:  Solving for Uy, Initial residual = 0.00835058, Final residual = 0.000448688, No Iterations 3
GAMG:  Solving for p, Initial residual = 0.00901551, Final residual = 0.000700634, No Iterations 2
time step continuity errors : sum local = 0.0209906, global = 0.00354803, cumulative = 0.862547
ExecutionTime = 1 s  ClockTime = 1 s

Time = 41

smoothSolver:  Solving for Ux, Initial residual = 0.000733778, Final residual = 7.33335e-05, No Iterations 3
smoothSolver:  Solving for Uy, Initial residual = 0.00818034, Final residual = 0.00043946, No Iterations 3
GAMG:  Solving for p, Initial residual = 0.00937851, Final residual = 0.000766489, No Iterations 2
time step continuity errors : sum local = 0.0227336, global = 0.00297951, cumulative = 0.865527
ExecutionTime = 1.02 s  ClockTime = 1 s

Time = 42

smoothSolver:  Solving for Ux, Initial residual = 0.000723336, Final residual = 4.22101e-05, No Iterations 4
smoothSolver:  Solving for Uy, Initial residual = 0.00804388, Final residual = 0.000430293, No Iterations 3
GAMG:  Solving for p, Initial residual = 0.00891067, Final residual = 0.000655957, No Iterations 2
time step continuity errors : sum local = 0.0192517, global = 0.00340028, cumulative = 0.868927
ExecutionTime = 1.04 s  ClockTime = 1 s

Time = 43

smoothSolver:  Solving for Ux, Initial residual = 0.000714341, Final residual = 7.06401e-05, No Iterations 3
smoothSolver:  Solving for Uy, Initial residual = 0.00785785, Final residual = 0.000421893, No Iterations 3
GAMG:  Solving for p, Initial residual = 0.00910696, Final residual = 0.000740056, No Iterations 2
time step continuity errors : sum local = 0.0215341, global = 0.0031417, cumulative = 0.872069
ExecutionTime = 1.05 s  ClockTime = 1 s

Time = 44

smoothSolver:  Solving for Ux, Initial residual = 0.000705132, Final residual = 6.96795e-05, No Iterations 3
smoothSolver:  Solving for Uy, Initial residual = 0.00773274, Final residual = 0.000414034, No Iterations 3
GAMG:  Solving for p, Initial residual = 0.00889239, Final residual = 0.00070986, No Iterations 2
time step continuity errors : sum local = 0.0204882, global = 0.00302804, cumulative = 0.875097
ExecutionTime = 1.07 s  ClockTime = 1 s

Time = 45

smoothSolver:  Solving for Ux, Initial residual = 0.000697143, Final residual = 6.87466e-05, No Iterations 3
smoothSolver:  Solving for Uy, Initial residual = 0.00759172, Final residual = 0.000405972, No Iterations 3
GAMG:  Solving for p, Initial residual = 0.00878052, Final residual = 0.000687897, No Iterations 2
time step continuity errors : sum local = 0.0196886, global = 0.003114, cumulative = 0.878211
ExecutionTime = 1.09 s  ClockTime = 1 s

Time = 46

smoothSolver:  Solving for Ux, Initial residual = 0.000689754, Final residual = 6.77624e-05, No Iterations 3
smoothSolver:  Solving for Uy, Initial residual = 0.00745252, Final residual = 0.000398418, No Iterations 3
GAMG:  Solving for p, Initial residual = 0.00880944, Final residual = 0.000696409, No Iterations 2
time step continuity errors : sum local = 0.0197806, global = 0.00320453, cumulative = 0.881415
ExecutionTime = 1.11 s  ClockTime = 1 s

Time = 47

smoothSolver:  Solving for Ux, Initial residual = 0.000682782, Final residual = 6.67631e-05, No Iterations 3
smoothSolver:  Solving for Uy, Initial residual = 0.0073201, Final residual = 0.000391339, No Iterations 3
GAMG:  Solving for p, Initial residual = 0.0088944, Final residual = 0.000708537, No Iterations 2
time step continuity errors : sum local = 0.0199844, global = 0.00320677, cumulative = 0.884622
ExecutionTime = 1.13 s  ClockTime = 2 s

Time = 48

smoothSolver:  Solving for Ux, Initial residual = 0.00067621, Final residual = 6.57828e-05, No Iterations 3
smoothSolver:  Solving for Uy, Initial residual = 0.00719412, Final residual = 0.000384491, No Iterations 3
GAMG:  Solving for p, Initial residual = 0.00896641, Final residual = 0.000715363, No Iterations 2
time step continuity errors : sum local = 0.0200388, global = 0.00314716, cumulative = 0.887769
ExecutionTime = 1.14 s  ClockTime = 2 s

Time = 49

smoothSolver:  Solving for Ux, Initial residual = 0.00067002, Final residual = 6.48418e-05, No Iterations 3
smoothSolver:  Solving for Uy, Initial residual = 0.00707274, Final residual = 0.000377755, No Iterations 3
GAMG:  Solving for p, Initial residual = 0.00903217, Final residual = 0.000716329, No Iterations 2
time step continuity errors : sum local = 0.0199362, global = 0.00307114, cumulative = 0.89084
ExecutionTime = 1.16 s  ClockTime = 2 s

Time = 50

smoothSolver:  Solving for Ux, Initial residual = 0.000664249, Final residual = 6.39452e-05, No Iterations 3
smoothSolver:  Solving for Uy, Initial residual = 0.00695267, Final residual = 0.000371044, No Iterations 3
GAMG:  Solving for p, Initial residual = 0.009112, Final residual = 0.000716791, No Iterations 2
time step continuity errors : sum local = 0.0198256, global = 0.00302669, cumulative = 0.893867
ExecutionTime = 1.18 s  ClockTime = 2 s

Time = 51

smoothSolver:  Solving for Ux, Initial residual = 0.000658859, Final residual = 6.309e-05, No Iterations 3
smoothSolver:  Solving for Uy, Initial residual = 0.00683449, Final residual = 0.000364329, No Iterations 3
GAMG:  Solving for p, Initial residual = 0.00920958, Final residual = 0.000717574, No Iterations 2
time step continuity errors : sum local = 0.0197347, global = 0.00301442, cumulative = 0.896881
ExecutionTime = 1.2 s  ClockTime = 2 s

Time = 52

smoothSolver:  Solving for Ux, Initial residual = 0.000653838, Final residual = 6.22746e-05, No Iterations 3
smoothSolver:  Solving for Uy, Initial residual = 0.0067184, Final residual = 0.000357574, No Iterations 3
GAMG:  Solving for p, Initial residual = 0.00931545, Final residual = 0.000726563, No Iterations 2
time step continuity errors : sum local = 0.0198718, global = 0.00336122, cumulative = 0.900243
ExecutionTime = 1.21 s  ClockTime = 2 s

Time = 53

smoothSolver:  Solving for Ux, Initial residual = 0.000649191, Final residual = 6.15013e-05, No Iterations 3
smoothSolver:  Solving for Uy, Initial residual = 0.00660342, Final residual = 0.000350933, No Iterations 3
GAMG:  Solving for p, Initial residual = 0.00943164, Final residual = 0.000706778, No Iterations 2
time step continuity errors : sum local = 0.0192603, global = 0.00334755, cumulative = 0.90359
ExecutionTime = 1.23 s  ClockTime = 2 s

Time = 54

smoothSolver:  Solving for Ux, Initial residual = 0.000644828, Final residual = 6.07513e-05, No Iterations 3
smoothSolver:  Solving for Uy, Initial residual = 0.00649159, Final residual = 0.000344109, No Iterations 3
GAMG:  Solving for p, Initial residual = 0.00952649, Final residual = 0.000715689, No Iterations 2
time step continuity errors : sum local = 0.0193866, global = 0.00367777, cumulative = 0.907268
ExecutionTime = 1.24 s  ClockTime = 2 s

Time = 55

smoothSolver:  Solving for Ux, Initial residual = 0.000640683, Final residual = 6.00335e-05, No Iterations 3
smoothSolver:  Solving for Uy, Initial residual = 0.00638166, Final residual = 0.000337668, No Iterations 3
GAMG:  Solving for p, Initial residual = 0.00967363, Final residual = 0.000694764, No Iterations 2
time step continuity errors : sum local = 0.0187495, global = 0.00355644, cumulative = 0.910824
ExecutionTime = 1.27 s  ClockTime = 2 s

Time = 56

smoothSolver:  Solving for Ux, Initial residual = 0.000636773, Final residual = 5.93347e-05, No Iterations 3
smoothSolver:  Solving for Uy, Initial residual = 0.00627448, Final residual = 0.000330931, No Iterations 3
GAMG:  Solving for p, Initial residual = 0.00977705, Final residual = 0.000690337, No Iterations 2
time step continuity errors : sum local = 0.0185167, global = 0.00337426, cumulative = 0.914199
ExecutionTime = 1.28 s  ClockTime = 2 s

Time = 57

smoothSolver:  Solving for Ux, Initial residual = 0.000633015, Final residual = 5.86551e-05, No Iterations 3
smoothSolver:  Solving for Uy, Initial residual = 0.0061707, Final residual = 0.000324586, No Iterations 3
GAMG:  Solving for p, Initial residual = 0.00992843, Final residual = 0.00069598, No Iterations 2
time step continuity errors : sum local = 0.018569, global = 0.00319065, cumulative = 0.917389
ExecutionTime = 1.3 s  ClockTime = 2 s

Time = 58

smoothSolver:  Solving for Ux, Initial residual = 0.000629475, Final residual = 5.79983e-05, No Iterations 3
smoothSolver:  Solving for Uy, Initial residual = 0.00606981, Final residual = 0.000318282, No Iterations 3
GAMG:  Solving for p, Initial residual = 0.0100847, Final residual = 0.000707163, No Iterations 2
time step continuity errors : sum local = 0.0187786, global = 0.00333533, cumulative = 0.920725
ExecutionTime = 1.32 s  ClockTime = 2 s

Time = 59

smoothSolver:  Solving for Ux, Initial residual = 0.000626133, Final residual = 5.73708e-05, No Iterations 3
smoothSolver:  Solving for Uy, Initial residual = 0.00597254, Final residual = 0.000312195, No Iterations 3
GAMG:  Solving for p, Initial residual = 0.0102583, Final residual = 0.000678682, No Iterations 2
time step continuity errors : sum local = 0.0179764, global = 0.00326078, cumulative = 0.923985
ExecutionTime = 1.33 s  ClockTime = 2 s

Time = 60

smoothSolver:  Solving for Ux, Initial residual = 0.000622891, Final residual = 5.67556e-05, No Iterations 3
smoothSolver:  Solving for Uy, Initial residual = 0.00587934, Final residual = 0.000306094, No Iterations 3
GAMG:  Solving for p, Initial residual = 0.0103782, Final residual = 0.000655611, No Iterations 2
time step continuity errors : sum local = 0.0172885, global = 0.00320206, cumulative = 0.927187
ExecutionTime = 1.36 s  ClockTime = 2 s

Time = 61

smoothSolver:  Solving for Ux, Initial residual = 0.000619755, Final residual = 5.61553e-05, No Iterations 3
smoothSolver:  Solving for Uy, Initial residual = 0.00579057, Final residual = 0.000300544, No Iterations 3
GAMG:  Solving for p, Initial residual = 0.0105266, Final residual = 0.000639248, No Iterations 2
time step continuity errors : sum local = 0.016784, global = 0.00323008, cumulative = 0.930418
ExecutionTime = 1.37 s  ClockTime = 2 s

Time = 62

smoothSolver:  Solving for Ux, Initial residual = 0.000616677, Final residual = 5.55659e-05, No Iterations 3
smoothSolver:  Solving for Uy, Initial residual = 0.0057072, Final residual = 0.000295364, No Iterations 3
GAMG:  Solving for p, Initial residual = 0.0106422, Final residual = 0.000620461, No Iterations 2
time step continuity errors : sum local = 0.0162307, global = 0.00333001, cumulative = 0.933748
ExecutionTime = 1.39 s  ClockTime = 2 s

Time = 63

smoothSolver:  Solving for Ux, Initial residual = 0.0006137, Final residual = 5.49866e-05, No Iterations 3
smoothSolver:  Solving for Uy, Initial residual = 0.00563007, Final residual = 0.000290567, No Iterations 3
GAMG:  Solving for p, Initial residual = 0.0107512, Final residual = 0.000603957, No Iterations 2
time step continuity errors : sum local = 0.0157461, global = 0.0034698, cumulative = 0.937217
ExecutionTime = 1.41 s  ClockTime = 2 s

Time = 64

smoothSolver:  Solving for Ux, Initial residual = 0.000610732, Final residual = 5.4413e-05, No Iterations 3
smoothSolver:  Solving for Uy, Initial residual = 0.00556, Final residual = 0.000286216, No Iterations 3
GAMG:  Solving for p, Initial residual = 0.0108777, Final residual = 0.000596266, No Iterations 2
time step continuity errors : sum local = 0.0154882, global = 0.0036207, cumulative = 0.940838
ExecutionTime = 1.43 s  ClockTime = 2 s

Time = 65

smoothSolver:  Solving for Ux, Initial residual = 0.000607747, Final residual = 5.38448e-05, No Iterations 3
smoothSolver:  Solving for Uy, Initial residual = 0.00549677, Final residual = 0.000282403, No Iterations 3
GAMG:  Solving for p, Initial residual = 0.0110419, Final residual = 0.000592727, No Iterations 2
time step continuity errors : sum local = 0.015333, global = 0.00379898, cumulative = 0.944637
ExecutionTime = 1.44 s  ClockTime = 2 s

Time = 66

smoothSolver:  Solving for Ux, Initial residual = 0.000604734, Final residual = 5.32787e-05, No Iterations 3
smoothSolver:  Solving for Uy, Initial residual = 0.00544367, Final residual = 0.000279146, No Iterations 3
GAMG:  Solving for p, Initial residual = 0.0111949, Final residual = 0.000588234, No Iterations 2
time step continuity errors : sum local = 0.0151584, global = 0.00399442, cumulative = 0.948631
ExecutionTime = 1.45 s  ClockTime = 2 s

Time = 67

smoothSolver:  Solving for Ux, Initial residual = 0.000601632, Final residual = 5.27216e-05, No Iterations 3
smoothSolver:  Solving for Uy, Initial residual = 0.00540086, Final residual = 0.000276448, No Iterations 3
GAMG:  Solving for p, Initial residual = 0.0113221, Final residual = 0.000588624, No Iterations 2
time step continuity errors : sum local = 0.0151065, global = 0.00419949, cumulative = 0.952831
ExecutionTime = 1.48 s  ClockTime = 2 s

Time = 68

smoothSolver:  Solving for Ux, Initial residual = 0.000598423, Final residual = 5.21568e-05, No Iterations 3
smoothSolver:  Solving for Uy, Initial residual = 0.00536838, Final residual = 0.000274423, No Iterations 3
GAMG:  Solving for p, Initial residual = 0.0114252, Final residual = 0.000592442, No Iterations 2
time step continuity errors : sum local = 0.0151223, global = 0.00441067, cumulative = 0.957242
ExecutionTime = 1.49 s  ClockTime = 2 s

Time = 69

smoothSolver:  Solving for Ux, Initial residual = 0.000595131, Final residual = 5.16058e-05, No Iterations 3
smoothSolver:  Solving for Uy, Initial residual = 0.00534771, Final residual = 0.000273085, No Iterations 3
GAMG:  Solving for p, Initial residual = 0.0116804, Final residual = 0.000586504, No Iterations 2
time step continuity errors : sum local = 0.0148728, global = 0.00454457, cumulative = 0.961786
ExecutionTime = 1.51 s  ClockTime = 2 s

Time = 70

smoothSolver:  Solving for Ux, Initial residual = 0.000591762, Final residual = 5.10349e-05, No Iterations 3
smoothSolver:  Solving for Uy, Initial residual = 0.0053398, Final residual = 0.000272629, No Iterations 3
GAMG:  Solving for p, Initial residual = 0.0120719, Final residual = 0.000576189, No Iterations 2
time step continuity errors : sum local = 0.0144952, global = 0.00466249, cumulative = 0.966449
ExecutionTime = 1.52 s  ClockTime = 2 s

Time = 71

smoothSolver:  Solving for Ux, Initial residual = 0.000588353, Final residual = 5.04877e-05, No Iterations 3
smoothSolver:  Solving for Uy, Initial residual = 0.00534539, Final residual = 0.000273064, No Iterations 3
GAMG:  Solving for p, Initial residual = 0.0126153, Final residual = 0.000573158, No Iterations 2
time step continuity errors : sum local = 0.0143034, global = 0.00483428, cumulative = 0.971283
ExecutionTime = 1.55 s  ClockTime = 2 s

Time = 72

smoothSolver:  Solving for Ux, Initial residual = 0.000584811, Final residual = 4.99345e-05, No Iterations 3
smoothSolver:  Solving for Uy, Initial residual = 0.00536508, Final residual = 0.000274074, No Iterations 3
GAMG:  Solving for p, Initial residual = 0.0131624, Final residual = 0.000570342, No Iterations 2
time step continuity errors : sum local = 0.0141069, global = 0.00500787, cumulative = 0.976291
ExecutionTime = 1.56 s  ClockTime = 2 s

Time = 73

smoothSolver:  Solving for Ux, Initial residual = 0.000581201, Final residual = 4.94063e-05, No Iterations 3
smoothSolver:  Solving for Uy, Initial residual = 0.00539987, Final residual = 0.000275562, No Iterations 3
GAMG:  Solving for p, Initial residual = 0.0135026, Final residual = 0.000568813, No Iterations 2
time step continuity errors : sum local = 0.0139432, global = 0.00515828, cumulative = 0.981449
ExecutionTime = 1.58 s  ClockTime = 2 s

Time = 74

smoothSolver:  Solving for Ux, Initial residual = 0.000577468, Final residual = 4.88898e-05, No Iterations 3
smoothSolver:  Solving for Uy, Initial residual = 0.00545276, Final residual = 0.00027743, No Iterations 3
GAMG:  Solving for p, Initial residual = 0.0138292, Final residual = 0.000575895, No Iterations 2
time step continuity errors : sum local = 0.0139596, global = 0.00526403, cumulative = 0.986713
ExecutionTime = 1.6 s  ClockTime = 2 s

Time = 75

smoothSolver:  Solving for Ux, Initial residual = 0.00057372, Final residual = 4.83803e-05, No Iterations 3
smoothSolver:  Solving for Uy, Initial residual = 0.0055207, Final residual = 0.000279557, No Iterations 3
GAMG:  Solving for p, Initial residual = 0.0142389, Final residual = 0.000590771, No Iterations 2
time step continuity errors : sum local = 0.0141418, global = 0.0053627, cumulative = 0.992076
ExecutionTime = 1.62 s  ClockTime = 2 s

Time = 76

smoothSolver:  Solving for Ux, Initial residual = 0.000569862, Final residual = 4.78846e-05, No Iterations 3
smoothSolver:  Solving for Uy, Initial residual = 0.00560476, Final residual = 0.000281898, No Iterations 3
GAMG:  Solving for p, Initial residual = 0.014821, Final residual = 0.000608596, No Iterations 2
time step continuity errors : sum local = 0.0143666, global = 0.00552021, cumulative = 0.997596
ExecutionTime = 1.63 s  ClockTime = 2 s

Time = 77

smoothSolver:  Solving for Ux, Initial residual = 0.000566086, Final residual = 4.73987e-05, No Iterations 3
smoothSolver:  Solving for Uy, Initial residual = 0.00570499, Final residual = 0.000284645, No Iterations 3
GAMG:  Solving for p, Initial residual = 0.0154137, Final residual = 0.000633167, No Iterations 2
time step continuity errors : sum local = 0.0147463, global = 0.00570863, cumulative = 1.0033
ExecutionTime = 1.65 s  ClockTime = 2 s

Time = 78

smoothSolver:  Solving for Ux, Initial residual = 0.000562208, Final residual = 4.69274e-05, No Iterations 3
smoothSolver:  Solving for Uy, Initial residual = 0.00581904, Final residual = 0.00028717, No Iterations 3
GAMG:  Solving for p, Initial residual = 0.0158987, Final residual = 0.000648187, No Iterations 2
time step continuity errors : sum local = 0.0148931, global = 0.0058697, cumulative = 1.00917
ExecutionTime = 1.67 s  ClockTime = 2 s

Time = 79

smoothSolver:  Solving for Ux, Initial residual = 0.000558255, Final residual = 4.64808e-05, No Iterations 3
smoothSolver:  Solving for Uy, Initial residual = 0.00594062, Final residual = 0.000289797, No Iterations 3
GAMG:  Solving for p, Initial residual = 0.016328, Final residual = 0.000668479, No Iterations 2
time step continuity errors : sum local = 0.0151573, global = 0.00606587, cumulative = 1.01524
ExecutionTime = 1.69 s  ClockTime = 2 s

Time = 80

smoothSolver:  Solving for Ux, Initial residual = 0.000554283, Final residual = 4.60511e-05, No Iterations 3
smoothSolver:  Solving for Uy, Initial residual = 0.00606866, Final residual = 0.000292105, No Iterations 3
GAMG:  Solving for p, Initial residual = 0.0166805, Final residual = 0.000697822, No Iterations 2
time step continuity errors : sum local = 0.0156186, global = 0.00628736, cumulative = 1.02153
ExecutionTime = 1.7 s  ClockTime = 2 s

Time = 81

smoothSolver:  Solving for Ux, Initial residual = 0.00055033, Final residual = 4.56389e-05, No Iterations 3
smoothSolver:  Solving for Uy, Initial residual = 0.00619784, Final residual = 0.000294006, No Iterations 3
GAMG:  Solving for p, Initial residual = 0.0172513, Final residual = 0.000735501, No Iterations 2
time step continuity errors : sum local = 0.0162316, global = 0.00652725, cumulative = 1.02805
ExecutionTime = 1.72 s  ClockTime = 2 s

Time = 82

smoothSolver:  Solving for Ux, Initial residual = 0.000546547, Final residual = 4.5249e-05, No Iterations 3
smoothSolver:  Solving for Uy, Initial residual = 0.00632077, Final residual = 0.000295372, No Iterations 3
GAMG:  Solving for p, Initial residual = 0.0176741, Final residual = 0.00077655, No Iterations 2
time step continuity errors : sum local = 0.0168928, global = 0.00678836, cumulative = 1.03484
ExecutionTime = 1.73 s  ClockTime = 2 s

Time = 83

smoothSolver:  Solving for Ux, Initial residual = 0.000542877, Final residual = 4.48765e-05, No Iterations 3
smoothSolver:  Solving for Uy, Initial residual = 0.00643626, Final residual = 0.000296437, No Iterations 3
GAMG:  Solving for p, Initial residual = 0.0185227, Final residual = 0.000823201, No Iterations 2
time step continuity errors : sum local = 0.0176328, global = 0.00706517, cumulative = 1.04191
ExecutionTime = 1.76 s  ClockTime = 2 s

Time = 84

smoothSolver:  Solving for Ux, Initial residual = 0.000539349, Final residual = 4.45396e-05, No Iterations 3
smoothSolver:  Solving for Uy, Initial residual = 0.0065458, Final residual = 0.000296848, No Iterations 3
GAMG:  Solving for p, Initial residual = 0.0191932, Final residual = 0.00086692, No Iterations 2
time step continuity errors : sum local = 0.0182799, global = 0.00735069, cumulative = 1.04926
ExecutionTime = 1.77 s  ClockTime = 2 s

Time = 85

smoothSolver:  Solving for Ux, Initial residual = 0.000535893, Final residual = 4.42326e-05, No Iterations 3
smoothSolver:  Solving for Uy, Initial residual = 0.00663238, Final residual = 0.000297132, No Iterations 3
GAMG:  Solving for p, Initial residual = 0.0200977, Final residual = 0.000908989, No Iterations 2
time step continuity errors : sum local = 0.0188636, global = 0.00765373, cumulative = 1.05691
ExecutionTime = 1.8 s  ClockTime = 2 s

Time = 86

smoothSolver:  Solving for Ux, Initial residual = 0.00053258, Final residual = 4.39594e-05, No Iterations 3
smoothSolver:  Solving for Uy, Initial residual = 0.00670913, Final residual = 0.000296882, No Iterations 3
GAMG:  Solving for p, Initial residual = 0.0209298, Final residual = 0.000942857, No Iterations 2
time step continuity errors : sum local = 0.019257, global = 0.00797266, cumulative = 1.06489
ExecutionTime = 1.81 s  ClockTime = 2 s

Time = 87

smoothSolver:  Solving for Ux, Initial residual = 0.000529429, Final residual = 4.37256e-05, No Iterations 3
smoothSolver:  Solving for Uy, Initial residual = 0.0067597, Final residual = 0.000296554, No Iterations 3
GAMG:  Solving for p, Initial residual = 0.0219212, Final residual = 0.000978747, No Iterations 2
time step continuity errors : sum local = 0.0196832, global = 0.00830177, cumulative = 1.07319
ExecutionTime = 1.83 s  ClockTime = 2 s

Time = 88

smoothSolver:  Solving for Ux, Initial residual = 0.000526441, Final residual = 4.35213e-05, No Iterations 3
smoothSolver:  Solving for Uy, Initial residual = 0.00679645, Final residual = 0.000295986, No Iterations 3
GAMG:  Solving for p, Initial residual = 0.0226631, Final residual = 0.00101448, No Iterations 2
time step continuity errors : sum local = 0.0200927, global = 0.00863033, cumulative = 1.08182
ExecutionTime = 1.84 s  ClockTime = 2 s

Time = 89

smoothSolver:  Solving for Ux, Initial residual = 0.000523714, Final residual = 4.33592e-05, No Iterations 3
smoothSolver:  Solving for Uy, Initial residual = 0.00680571, Final residual = 0.000295038, No Iterations 3
GAMG:  Solving for p, Initial residual = 0.0236198, Final residual = 0.0010495, No Iterations 2
time step continuity errors : sum local = 0.0205139, global = 0.00894924, cumulative = 1.09077
ExecutionTime = 1.86 s  ClockTime = 2 s

Time = 90

smoothSolver:  Solving for Ux, Initial residual = 0.000521032, Final residual = 4.32279e-05, No Iterations 3
smoothSolver:  Solving for Uy, Initial residual = 0.00679957, Final residual = 0.000293941, No Iterations 3
GAMG:  Solving for p, Initial residual = 0.024025, Final residual = 0.00108972, No Iterations 2
time step continuity errors : sum local = 0.0210907, global = 0.00926432, cumulative = 1.10003
ExecutionTime = 1.88 s  ClockTime = 2 s

Time = 91

smoothSolver:  Solving for Ux, Initial residual = 0.000518302, Final residual = 4.3131e-05, No Iterations 3
smoothSolver:  Solving for Uy, Initial residual = 0.00676335, Final residual = 0.000292869, No Iterations 3
GAMG:  Solving for p, Initial residual = 0.0249263, Final residual = 0.00113436, No Iterations 2
time step continuity errors : sum local = 0.021775, global = 0.0095396, cumulative = 1.10957
ExecutionTime = 1.9 s  ClockTime = 2 s

Time = 92

smoothSolver:  Solving for Ux, Initial residual = 0.000515779, Final residual = 4.30689e-05, No Iterations 3
smoothSolver:  Solving for Uy, Initial residual = 0.00671874, Final residual = 0.000292208, No Iterations 3
GAMG:  Solving for p, Initial residual = 0.0257015, Final residual = 0.00116955, No Iterations 2
time step continuity errors : sum local = 0.0222856, global = 0.00970659, cumulative = 1.11928
ExecutionTime = 1.91 s  ClockTime = 2 s

Time = 93

smoothSolver:  Solving for Ux, Initial residual = 0.000513364, Final residual = 4.30264e-05, No Iterations 3
smoothSolver:  Solving for Uy, Initial residual = 0.00664348, Final residual = 0.000291762, No Iterations 3
GAMG:  Solving for p, Initial residual = 0.0264559, Final residual = 0.00118807, No Iterations 2
time step continuity errors : sum local = 0.0224811, global = 0.00974359, cumulative = 1.12902
ExecutionTime = 1.94 s  ClockTime = 2 s

Time = 94

smoothSolver:  Solving for Ux, Initial residual = 0.000510935, Final residual = 4.30128e-05, No Iterations 3
smoothSolver:  Solving for Uy, Initial residual = 0.0065546, Final residual = 0.00029131, No Iterations 3
GAMG:  Solving for p, Initial residual = 0.0275307, Final residual = 0.0011861, No Iterations 2
time step continuity errors : sum local = 0.0223631, global = 0.00963396, cumulative = 1.13865
ExecutionTime = 1.95 s  ClockTime = 2 s

Time = 95

smoothSolver:  Solving for Ux, Initial residual = 0.000508541, Final residual = 4.30314e-05, No Iterations 3
smoothSolver:  Solving for Uy, Initial residual = 0.00645995, Final residual = 0.00029098, No Iterations 3
GAMG:  Solving for p, Initial residual = 0.0279854, Final residual = 0.00116659, No Iterations 2
time step continuity errors : sum local = 0.0220051, global = 0.00939865, cumulative = 1.14805
ExecutionTime = 1.97 s  ClockTime = 2 s

Time = 96

smoothSolver:  Solving for Ux, Initial residual = 0.000505966, Final residual = 4.30999e-05, No Iterations 3
smoothSolver:  Solving for Uy, Initial residual = 0.00633447, Final residual = 0.000290435, No Iterations 3
GAMG:  Solving for p, Initial residual = 0.028919, Final residual = 0.00114258, No Iterations 2
time step continuity errors : sum local = 0.0216102, global = 0.0090808, cumulative = 1.15713
ExecutionTime = 1.98 s  ClockTime = 2 s

Time = 97

smoothSolver:  Solving for Ux, Initial residual = 0.000503143, Final residual = 4.31947e-05, No Iterations 3
smoothSolver:  Solving for Uy, Initial residual = 0.00622606, Final residual = 0.000290031, No Iterations 3
GAMG:  Solving for p, Initial residual = 0.0293655, Final residual = 0.00112401, No Iterations 2
time step continuity errors : sum local = 0.0213195, global = 0.00868345, cumulative = 1.16582
ExecutionTime = 2.01 s  ClockTime = 2 s

Time = 98

smoothSolver:  Solving for Ux, Initial residual = 0.000501308, Final residual = 4.33233e-05, No Iterations 3
smoothSolver:  Solving for Uy, Initial residual = 0.00609829, Final residual = 0.000289766, No Iterations 3
GAMG:  Solving for p, Initial residual = 0.0300653, Final residual = 0.00110904, No Iterations 2
time step continuity errors : sum local = 0.0210934, global = 0.00818728, cumulative = 1.17401
ExecutionTime = 2.02 s  ClockTime = 2 s

Time = 99

smoothSolver:  Solving for Ux, Initial residual = 0.000499259, Final residual = 4.34826e-05, No Iterations 3
smoothSolver:  Solving for Uy, Initial residual = 0.00595942, Final residual = 0.000289273, No Iterations 3
GAMG:  Solving for p, Initial residual = 0.0308028, Final residual = 0.0010965, No Iterations 2
time step continuity errors : sum local = 0.020932, global = 0.00758597, cumulative = 1.18159
ExecutionTime = 2.03 s  ClockTime = 2 s

Time = 100

smoothSolver:  Solving for Ux, Initial residual = 0.000496722, Final residual = 4.36475e-05, No Iterations 3
smoothSolver:  Solving for Uy, Initial residual = 0.00583865, Final residual = 0.000288867, No Iterations 3
GAMG:  Solving for p, Initial residual = 0.0310418, Final residual = 0.0010969, No Iterations 2
time step continuity errors : sum local = 0.0209893, global = 0.00694362, cumulative = 1.18853
ExecutionTime = 2.06 s  ClockTime = 2 s

Time = 101

smoothSolver:  Solving for Ux, Initial residual = 0.000493708, Final residual = 4.38212e-05, No Iterations 3
smoothSolver:  Solving for Uy, Initial residual = 0.0057015, Final residual = 0.000288663, No Iterations 3
GAMG:  Solving for p, Initial residual = 0.0318888, Final residual = 0.00111198, No Iterations 2
time step continuity errors : sum local = 0.0213212, global = 0.00632661, cumulative = 1.19486
ExecutionTime = 2.07 s  ClockTime = 2 s

Time = 102

smoothSolver:  Solving for Ux, Initial residual = 0.000490796, Final residual = 4.40325e-05, No Iterations 3
smoothSolver:  Solving for Uy, Initial residual = 0.005566, Final residual = 0.000288815, No Iterations 3
GAMG:  Solving for p, Initial residual = 0.0322618, Final residual = 0.00113638, No Iterations 2
time step continuity errors : sum local = 0.0218593, global = 0.00572797, cumulative = 1.20059
ExecutionTime = 2.09 s  ClockTime = 2 s

Time = 103

smoothSolver:  Solving for Ux, Initial residual = 0.000487781, Final residual = 4.42286e-05, No Iterations 3
smoothSolver:  Solving for Uy, Initial residual = 0.00544758, Final residual = 0.00028873, No Iterations 3
GAMG:  Solving for p, Initial residual = 0.0329229, Final residual = 0.00116027, No Iterations 2
time step continuity errors : sum local = 0.0223711, global = 0.00507902, cumulative = 1.20567
ExecutionTime = 2.1 s  ClockTime = 2 s

Time = 104

smoothSolver:  Solving for Ux, Initial residual = 0.000484935, Final residual = 4.44435e-05, No Iterations 3
smoothSolver:  Solving for Uy, Initial residual = 0.00531586, Final residual = 0.000288223, No Iterations 3
GAMG:  Solving for p, Initial residual = 0.03323, Final residual = 0.00116598, No Iterations 2
time step continuity errors : sum local = 0.0225342, global = 0.00428951, cumulative = 1.20996
ExecutionTime = 2.13 s  ClockTime = 3 s

Time = 105

smoothSolver:  Solving for Ux, Initial residual = 0.000481879, Final residual = 4.46776e-05, No Iterations 3
smoothSolver:  Solving for Uy, Initial residual = 0.00519742, Final residual = 0.000287334, No Iterations 3
GAMG:  Solving for p, Initial residual = 0.0331367, Final residual = 0.00115437, No Iterations 2
time step continuity errors : sum local = 0.0223818, global = 0.00334527, cumulative = 1.2133
ExecutionTime = 2.14 s  ClockTime = 3 s

Time = 106

smoothSolver:  Solving for Ux, Initial residual = 0.000478196, Final residual = 4.48621e-05, No Iterations 3
smoothSolver:  Solving for Uy, Initial residual = 0.00509676, Final residual = 0.000287256, No Iterations 3
GAMG:  Solving for p, Initial residual = 0.0337925, Final residual = 0.00112852, No Iterations 2
time step continuity errors : sum local = 0.0219171, global = 0.00230424, cumulative = 1.21561
ExecutionTime = 2.16 s  ClockTime = 3 s

Time = 107

smoothSolver:  Solving for Ux, Initial residual = 0.000474393, Final residual = 4.50986e-05, No Iterations 3
smoothSolver:  Solving for Uy, Initial residual = 0.00497264, Final residual = 0.000286731, No Iterations 3
GAMG:  Solving for p, Initial residual = 0.033577, Final residual = 0.00109694, No Iterations 2
time step continuity errors : sum local = 0.0213311, global = 0.00130263, cumulative = 1.21691
ExecutionTime = 2.17 s  ClockTime = 3 s

Time = 108

smoothSolver:  Solving for Ux, Initial residual = 0.000470133, Final residual = 4.53315e-05, No Iterations 3
smoothSolver:  Solving for Uy, Initial residual = 0.00485189, Final residual = 0.000285278, No Iterations 3
GAMG:  Solving for p, Initial residual = 0.0331586, Final residual = 0.00107345, No Iterations 2
time step continuity errors : sum local = 0.0209037, global = 0.000512713, cumulative = 1.21742
ExecutionTime = 2.2 s  ClockTime = 3 s

Time = 109

smoothSolver:  Solving for Ux, Initial residual = 0.000465648, Final residual = 4.55263e-05, No Iterations 3
smoothSolver:  Solving for Uy, Initial residual = 0.00479515, Final residual = 0.000283177, No Iterations 3
GAMG:  Solving for p, Initial residual = 0.0336148, Final residual = 0.00105298, No Iterations 2
time step continuity errors : sum local = 0.0204731, global = 1.38371e-05, cumulative = 1.21744
ExecutionTime = 2.21 s  ClockTime = 3 s

Time = 110

smoothSolver:  Solving for Ux, Initial residual = 0.000461842, Final residual = 4.57585e-05, No Iterations 3
smoothSolver:  Solving for Uy, Initial residual = 0.00471524, Final residual = 0.000282281, No Iterations 3
GAMG:  Solving for p, Initial residual = 0.0332388, Final residual = 0.00103127, No Iterations 2
time step continuity errors : sum local = 0.0199959, global = -0.00018873, cumulative = 1.21725
ExecutionTime = 2.23 s  ClockTime = 3 s

Time = 111

smoothSolver:  Solving for Ux, Initial residual = 0.000457461, Final residual = 2.66664e-05, No Iterations 4
smoothSolver:  Solving for Uy, Initial residual = 0.00461686, Final residual = 0.000280367, No Iterations 3
GAMG:  Solving for p, Initial residual = 0.0316069, Final residual = 0.000933173, No Iterations 2
time step continuity errors : sum local = 0.0180061, global = 5.78758e-05, cumulative = 1.21731
ExecutionTime = 2.25 s  ClockTime = 3 s

Time = 112

smoothSolver:  Solving for Ux, Initial residual = 0.000450821, Final residual = 2.64429e-05, No Iterations 4
smoothSolver:  Solving for Uy, Initial residual = 0.0046049, Final residual = 0.000282842, No Iterations 3
GAMG:  Solving for p, Initial residual = 0.0331244, Final residual = 0.000950691, No Iterations 2
time step continuity errors : sum local = 0.0181975, global = 0.000264781, cumulative = 1.21757
ExecutionTime = 2.27 s  ClockTime = 3 s

Time = 113

smoothSolver:  Solving for Ux, Initial residual = 0.000444284, Final residual = 2.63466e-05, No Iterations 4
smoothSolver:  Solving for Uy, Initial residual = 0.00455031, Final residual = 0.000279733, No Iterations 3
GAMG:  Solving for p, Initial residual = 0.0331667, Final residual = 0.000936133, No Iterations 2
time step continuity errors : sum local = 0.0177446, global = 0.000169744, cumulative = 1.21774
ExecutionTime = 2.29 s  ClockTime = 3 s

Time = 114

smoothSolver:  Solving for Ux, Initial residual = 0.000437813, Final residual = 2.62962e-05, No Iterations 4
smoothSolver:  Solving for Uy, Initial residual = 0.00444142, Final residual = 0.000276403, No Iterations 3
GAMG:  Solving for p, Initial residual = 0.0317793, Final residual = 0.00089988, No Iterations 2
time step continuity errors : sum local = 0.0169219, global = -7.19971e-05, cumulative = 1.21767
ExecutionTime = 2.3 s  ClockTime = 3 s

Time = 115

smoothSolver:  Solving for Ux, Initial residual = 0.00043111, Final residual = 2.62445e-05, No Iterations 4
smoothSolver:  Solving for Uy, Initial residual = 0.00432563, Final residual = 0.000270765, No Iterations 3
GAMG:  Solving for p, Initial residual = 0.0313746, Final residual = 0.000864028, No Iterations 2
time step continuity errors : sum local = 0.0161393, global = -0.000719794, cumulative = 1.21695
ExecutionTime = 2.32 s  ClockTime = 3 s

Time = 116

smoothSolver:  Solving for Ux, Initial residual = 0.000424519, Final residual = 2.6197e-05, No Iterations 4
smoothSolver:  Solving for Uy, Initial residual = 0.00421895, Final residual = 0.000262691, No Iterations 3
GAMG:  Solving for p, Initial residual = 0.0310825, Final residual = 0.000842576, No Iterations 2
time step continuity errors : sum local = 0.0156013, global = -0.00211489, cumulative = 1.21483
ExecutionTime = 2.33 s  ClockTime = 3 s

Time = 117

smoothSolver:  Solving for Ux, Initial residual = 0.000417619, Final residual = 2.60584e-05, No Iterations 4
smoothSolver:  Solving for Uy, Initial residual = 0.00409334, Final residual = 0.000253502, No Iterations 3
GAMG:  Solving for p, Initial residual = 0.0299623, Final residual = 0.000851631, No Iterations 2
time step continuity errors : sum local = 0.0156124, global = -0.00448006, cumulative = 1.21035
ExecutionTime = 2.36 s  ClockTime = 3 s

Time = 118

smoothSolver:  Solving for Ux, Initial residual = 0.000410029, Final residual = 2.58204e-05, No Iterations 4
smoothSolver:  Solving for Uy, Initial residual = 0.00396365, Final residual = 0.000245093, No Iterations 3
GAMG:  Solving for p, Initial residual = 0.0296784, Final residual = 0.00103803, No Iterations 2
time step continuity errors : sum local = 0.0187598, global = -0.00655222, cumulative = 1.2038
ExecutionTime = 2.37 s  ClockTime = 3 s

Time = 119

smoothSolver:  Solving for Ux, Initial residual = 0.000402559, Final residual = 2.55493e-05, No Iterations 4
smoothSolver:  Solving for Uy, Initial residual = 0.00382647, Final residual = 0.000236561, No Iterations 3
GAMG:  Solving for p, Initial residual = 0.0298428, Final residual = 0.00281099, No Iterations 1
time step continuity errors : sum local = 0.0491205, global = -0.00437499, cumulative = 1.19943
ExecutionTime = 2.39 s  ClockTime = 3 s

Time = 120

smoothSolver:  Solving for Ux, Initial residual = 0.000395835, Final residual = 2.52546e-05, No Iterations 4
smoothSolver:  Solving for Uy, Initial residual = 0.00364413, Final residual = 0.000226494, No Iterations 3
GAMG:  Solving for p, Initial residual = 0.0316464, Final residual = 0.00153791, No Iterations 2
time step continuity errors : sum local = 0.0262137, global = -0.00569367, cumulative = 1.19373
ExecutionTime = 2.41 s  ClockTime = 3 s

Time = 121

smoothSolver:  Solving for Ux, Initial residual = 0.000386667, Final residual = 2.46085e-05, No Iterations 4
smoothSolver:  Solving for Uy, Initial residual = 0.00361501, Final residual = 0.000221117, No Iterations 3
GAMG:  Solving for p, Initial residual = 0.0291642, Final residual = 0.00261039, No Iterations 1
time step continuity errors : sum local = 0.042215, global = -0.00637916, cumulative = 1.18735
ExecutionTime = 2.42 s  ClockTime = 3 s

Time = 122

smoothSolver:  Solving for Ux, Initial residual = 0.000379411, Final residual = 2.42634e-05, No Iterations 4
smoothSolver:  Solving for Uy, Initial residual = 0.00336032, Final residual = 0.000206574, No Iterations 3
GAMG:  Solving for p, Initial residual = 0.0301902, Final residual = 0.00129647, No Iterations 2
time step continuity errors : sum local = 0.0204966, global = -0.000146421, cumulative = 1.18721
ExecutionTime = 2.44 s  ClockTime = 3 s

Time = 123

smoothSolver:  Solving for Ux, Initial residual = 0.000370416, Final residual = 2.3601e-05, No Iterations 4
smoothSolver:  Solving for Uy, Initial residual = 0.00325535, Final residual = 0.00019788, No Iterations 3
GAMG:  Solving for p, Initial residual = 0.0283897, Final residual = 0.00240646, No Iterations 1
time step continuity errors : sum local = 0.0361744, global = -0.00479568, cumulative = 1.18241
ExecutionTime = 2.46 s  ClockTime = 3 s

Time = 124

smoothSolver:  Solving for Ux, Initial residual = 0.00036218, Final residual = 2.31406e-05, No Iterations 4
smoothSolver:  Solving for Uy, Initial residual = 0.00305769, Final residual = 0.000185284, No Iterations 3
GAMG:  Solving for p, Initial residual = 0.0292498, Final residual = 0.0012025, No Iterations 2
time step continuity errors : sum local = 0.017768, global = -0.000276155, cumulative = 1.18214
ExecutionTime = 2.48 s  ClockTime = 3 s

Time = 125

smoothSolver:  Solving for Ux, Initial residual = 0.000352184, Final residual = 2.23023e-05, No Iterations 4
smoothSolver:  Solving for Uy, Initial residual = 0.00296749, Final residual = 0.000178336, No Iterations 3
GAMG:  Solving for p, Initial residual = 0.0260762, Final residual = 0.00250966, No Iterations 1
time step continuity errors : sum local = 0.0363064, global = -0.013639, cumulative = 1.1685
ExecutionTime = 2.5 s  ClockTime = 3 s

Time = 126

smoothSolver:  Solving for Ux, Initial residual = 0.00034352, Final residual = 2.18059e-05, No Iterations 4
smoothSolver:  Solving for Uy, Initial residual = 0.00275149, Final residual = 0.000166199, No Iterations 3
GAMG:  Solving for p, Initial residual = 0.0266201, Final residual = 0.00141367, No Iterations 2
time step continuity errors : sum local = 0.0201161, global = 0.00203128, cumulative = 1.17053
ExecutionTime = 2.51 s  ClockTime = 3 s

Time = 127

smoothSolver:  Solving for Ux, Initial residual = 0.000332725, Final residual = 2.08198e-05, No Iterations 4
smoothSolver:  Solving for Uy, Initial residual = 0.00264289, Final residual = 0.00016263, No Iterations 3
GAMG:  Solving for p, Initial residual = 0.0220296, Final residual = 0.00080873, No Iterations 2
time step continuity errors : sum local = 0.012144, global = 0.000970698, cumulative = 1.1715
ExecutionTime = 2.53 s  ClockTime = 3 s

Time = 128

smoothSolver:  Solving for Ux, Initial residual = 0.000325579, Final residual = 2.04275e-05, No Iterations 4
smoothSolver:  Solving for Uy, Initial residual = 0.00246009, Final residual = 0.000149346, No Iterations 3
GAMG:  Solving for p, Initial residual = 0.0188823, Final residual = 0.000661968, No Iterations 2
time step continuity errors : sum local = 0.0103821, global = -0.000768352, cumulative = 1.17073
ExecutionTime = 2.55 s  ClockTime = 3 s

Time = 129

smoothSolver:  Solving for Ux, Initial residual = 0.000315573, Final residual = 1.96458e-05, No Iterations 4
smoothSolver:  Solving for Uy, Initial residual = 0.00233117, Final residual = 0.000141295, No Iterations 3
GAMG:  Solving for p, Initial residual = 0.0175331, Final residual = 0.000652635, No Iterations 2
time step continuity errors : sum local = 0.0102557, global = -0.000469663, cumulative = 1.17026
ExecutionTime = 2.57 s  ClockTime = 3 s

Time = 130

smoothSolver:  Solving for Ux, Initial residual = 0.000305655, Final residual = 1.89128e-05, No Iterations 4
smoothSolver:  Solving for Uy, Initial residual = 0.00220308, Final residual = 0.000135693, No Iterations 3
GAMG:  Solving for p, Initial residual = 0.0165777, Final residual = 0.0015388, No Iterations 1
time step continuity errors : sum local = 0.0245969, global = -0.0122409, cumulative = 1.15802
ExecutionTime = 2.58 s  ClockTime = 3 s

Time = 131

smoothSolver:  Solving for Ux, Initial residual = 0.000297537, Final residual = 1.83839e-05, No Iterations 4
smoothSolver:  Solving for Uy, Initial residual = 0.00204467, Final residual = 0.000125327, No Iterations 3
GAMG:  Solving for p, Initial residual = 0.0171189, Final residual = 0.00104356, No Iterations 2
time step continuity errors : sum local = 0.0165731, global = -0.00394388, cumulative = 1.15408
ExecutionTime = 2.6 s  ClockTime = 3 s

Time = 132

smoothSolver:  Solving for Ux, Initial residual = 0.000288647, Final residual = 1.77223e-05, No Iterations 4
smoothSolver:  Solving for Uy, Initial residual = 0.00200318, Final residual = 0.000122828, No Iterations 3
GAMG:  Solving for p, Initial residual = 0.0153314, Final residual = 0.00119493, No Iterations 1
time step continuity errors : sum local = 0.0203726, global = -0.00478997, cumulative = 1.14929
ExecutionTime = 2.61 s  ClockTime = 3 s

Time = 133

smoothSolver:  Solving for Ux, Initial residual = 0.000281356, Final residual = 1.72172e-05, No Iterations 4
smoothSolver:  Solving for Uy, Initial residual = 0.00183971, Final residual = 0.000109517, No Iterations 3
GAMG:  Solving for p, Initial residual = 0.0144543, Final residual = 0.00075644, No Iterations 2
time step continuity errors : sum local = 0.0128731, global = -0.000111292, cumulative = 1.14917
ExecutionTime = 2.64 s  ClockTime = 3 s

Time = 134

smoothSolver:  Solving for Ux, Initial residual = 0.000273966, Final residual = 1.67179e-05, No Iterations 4
smoothSolver:  Solving for Uy, Initial residual = 0.00180287, Final residual = 0.00010619, No Iterations 3
GAMG:  Solving for p, Initial residual = 0.0131759, Final residual = 0.00110013, No Iterations 1
time step continuity errors : sum local = 0.0195992, global = -0.00629857, cumulative = 1.14288
ExecutionTime = 2.65 s  ClockTime = 3 s

Time = 135

smoothSolver:  Solving for Ux, Initial residual = 0.000267325, Final residual = 1.62495e-05, No Iterations 4
smoothSolver:  Solving for Uy, Initial residual = 0.0016505, Final residual = 9.55967e-05, No Iterations 3
GAMG:  Solving for p, Initial residual = 0.0127129, Final residual = 0.00056492, No Iterations 2
time step continuity errors : sum local = 0.0100617, global = -0.00192226, cumulative = 1.14095
ExecutionTime = 2.67 s  ClockTime = 3 s

Time = 136

smoothSolver:  Solving for Ux, Initial residual = 0.000259043, Final residual = 1.57315e-05, No Iterations 4
smoothSolver:  Solving for Uy, Initial residual = 0.00158234, Final residual = 9.11704e-05, No Iterations 3
GAMG:  Solving for p, Initial residual = 0.0119619, Final residual = 0.000837183, No Iterations 1
time step continuity errors : sum local = 0.0153859, global = -0.00374866, cumulative = 1.1372
ExecutionTime = 2.68 s  ClockTime = 3 s

Time = 137

smoothSolver:  Solving for Ux, Initial residual = 0.000253138, Final residual = 1.5342e-05, No Iterations 4
smoothSolver:  Solving for Uy, Initial residual = 0.00146863, Final residual = 8.20234e-05, No Iterations 3
GAMG:  Solving for p, Initial residual = 0.0112309, Final residual = 0.000518133, No Iterations 2
time step continuity errors : sum local = 0.00951601, global = 0.000225264, cumulative = 1.13743
ExecutionTime = 2.7 s  ClockTime = 3 s

Time = 138

smoothSolver:  Solving for Ux, Initial residual = 0.000247517, Final residual = 1.49976e-05, No Iterations 4
smoothSolver:  Solving for Uy, Initial residual = 0.0014255, Final residual = 8.02963e-05, No Iterations 3
GAMG:  Solving for p, Initial residual = 0.0100933, Final residual = 0.000800408, No Iterations 1
time step continuity errors : sum local = 0.0151041, global = -0.00259846, cumulative = 1.13483
ExecutionTime = 2.72 s  ClockTime = 3 s

Time = 139

smoothSolver:  Solving for Ux, Initial residual = 0.00024202, Final residual = 1.46429e-05, No Iterations 4
smoothSolver:  Solving for Uy, Initial residual = 0.00130438, Final residual = 7.2423e-05, No Iterations 3
GAMG:  Solving for p, Initial residual = 0.00979073, Final residual = 0.00039333, No Iterations 2
time step continuity errors : sum local = 0.00741525, global = -0.000989608, cumulative = 1.13384
ExecutionTime = 2.74 s  ClockTime = 3 s

Time = 140

smoothSolver:  Solving for Ux, Initial residual = 0.000235972, Final residual = 1.42355e-05, No Iterations 4
smoothSolver:  Solving for Uy, Initial residual = 0.00123265, Final residual = 6.77509e-05, No Iterations 3
GAMG:  Solving for p, Initial residual = 0.008894, Final residual = 0.000651195, No Iterations 1
time step continuity errors : sum local = 0.0124097, global = -0.00277944, cumulative = 1.13106
ExecutionTime = 2.75 s  ClockTime = 3 s

Time = 141

smoothSolver:  Solving for Ux, Initial residual = 0.000231054, Final residual = 1.39216e-05, No Iterations 4
smoothSolver:  Solving for Uy, Initial residual = 0.00114749, Final residual = 6.22347e-05, No Iterations 3
GAMG:  Solving for p, Initial residual = 0.00844245, Final residual = 0.000410352, No Iterations 2
time step continuity errors : sum local = 0.00782048, global = -6.08995e-05, cumulative = 1.131
ExecutionTime = 2.77 s  ClockTime = 3 s

Time = 142

smoothSolver:  Solving for Ux, Initial residual = 0.0002266, Final residual = 1.36196e-05, No Iterations 4
smoothSolver:  Solving for Uy, Initial residual = 0.00109078, Final residual = 6.01532e-05, No Iterations 3
GAMG:  Solving for p, Initial residual = 0.00758704, Final residual = 0.000631124, No Iterations 1
time step continuity errors : sum local = 0.0121946, global = -0.001639, cumulative = 1.12936
ExecutionTime = 2.79 s  ClockTime = 3 s

Time = 143

smoothSolver:  Solving for Ux, Initial residual = 0.00022184, Final residual = 1.3331e-05, No Iterations 4
smoothSolver:  Solving for Uy, Initial residual = 0.00100508, Final residual = 5.53797e-05, No Iterations 3
GAMG:  Solving for p, Initial residual = 0.00714531, Final residual = 0.000322523, No Iterations 2
time step continuity errors : sum local = 0.00623509, global = -0.000742937, cumulative = 1.12862
ExecutionTime = 2.8 s  ClockTime = 3 s

Time = 144

smoothSolver:  Solving for Ux, Initial residual = 0.000217947, Final residual = 1.30688e-05, No Iterations 4
smoothSolver:  Solving for Uy, Initial residual = 0.000946162, Final residual = 5.21163e-05, No Iterations 3
GAMG:  Solving for p, Initial residual = 0.0064792, Final residual = 0.000602877, No Iterations 1
time step continuity errors : sum local = 0.0117444, global = -0.00266134, cumulative = 1.12596
ExecutionTime = 2.82 s  ClockTime = 3 s

Time = 145

smoothSolver:  Solving for Ux, Initial residual = 0.000213248, Final residual = 1.28021e-05, No Iterations 4
smoothSolver:  Solving for Uy, Initial residual = 0.000879801, Final residual = 4.84727e-05, No Iterations 3
GAMG:  Solving for p, Initial residual = 0.00609505, Final residual = 0.000308019, No Iterations 2
time step continuity errors : sum local = 0.00600539, global = -0.000346761, cumulative = 1.12561
ExecutionTime = 2.83 s  ClockTime = 3 s

Time = 146

smoothSolver:  Solving for Ux, Initial residual = 0.000209333, Final residual = 1.25491e-05, No Iterations 4
smoothSolver:  Solving for Uy, Initial residual = 0.000836568, Final residual = 4.64538e-05, No Iterations 3
GAMG:  Solving for p, Initial residual = 0.00546445, Final residual = 0.000505981, No Iterations 1
time step continuity errors : sum local = 0.00994807, global = -0.00205789, cumulative = 1.12355
ExecutionTime = 2.86 s  ClockTime = 3 s

Time = 147

smoothSolver:  Solving for Ux, Initial residual = 0.000204952, Final residual = 1.23003e-05, No Iterations 4
smoothSolver:  Solving for Uy, Initial residual = 0.000775417, Final residual = 4.28342e-05, No Iterations 3
GAMG:  Solving for p, Initial residual = 0.00510666, Final residual = 0.000256141, No Iterations 2
time step continuity errors : sum local = 0.005038, global = -0.000422627, cumulative = 1.12313
ExecutionTime = 2.87 s  ClockTime = 3 s

Time = 148

smoothSolver:  Solving for Ux, Initial residual = 0.000201813, Final residual = 1.20907e-05, No Iterations 4
smoothSolver:  Solving for Uy, Initial residual = 0.000716606, Final residual = 3.98576e-05, No Iterations 3
GAMG:  Solving for p, Initial residual = 0.00452239, Final residual = 0.000179694, No Iterations 2
time step continuity errors : sum local = 0.0035543, global = -0.000711642, cumulative = 1.12242
ExecutionTime = 2.88 s  ClockTime = 3 s

Time = 149

smoothSolver:  Solving for Ux, Initial residual = 0.000197487, Final residual = 1.18679e-05, No Iterations 4
smoothSolver:  Solving for Uy, Initial residual = 0.000671069, Final residual = 3.70541e-05, No Iterations 3
GAMG:  Solving for p, Initial residual = 0.00403383, Final residual = 0.000370519, No Iterations 1
time step continuity errors : sum local = 0.00734918, global = -0.00234355, cumulative = 1.12008
ExecutionTime = 2.91 s  ClockTime = 3 s

Time = 150

smoothSolver:  Solving for Ux, Initial residual = 0.000193697, Final residual = 1.16579e-05, No Iterations 4
smoothSolver:  Solving for Uy, Initial residual = 0.00062784, Final residual = 3.45667e-05, No Iterations 3
GAMG:  Solving for p, Initial residual = 0.00386566, Final residual = 0.000155007, No Iterations 2
time step continuity errors : sum local = 0.00307514, global = 8.01363e-06, cumulative = 1.12008
ExecutionTime = 2.92 s  ClockTime = 3 s

Time = 151

smoothSolver:  Solving for Ux, Initial residual = 0.000190175, Final residual = 1.14467e-05, No Iterations 4
smoothSolver:  Solving for Uy, Initial residual = 0.000585983, Final residual = 3.20337e-05, No Iterations 3
GAMG:  Solving for p, Initial residual = 0.00340349, Final residual = 0.000287563, No Iterations 1
time step continuity errors : sum local = 0.00572289, global = -0.00133051, cumulative = 1.11875
ExecutionTime = 2.93 s  ClockTime = 3 s

Time = 152

smoothSolver:  Solving for Ux, Initial residual = 0.000186758, Final residual = 1.12613e-05, No Iterations 4
smoothSolver:  Solving for Uy, Initial residual = 0.000552891, Final residual = 2.95405e-05, No Iterations 3
GAMG:  Solving for p, Initial residual = 0.00324848, Final residual = 0.000156759, No Iterations 2
time step continuity errors : sum local = 0.00311923, global = 8.70929e-05, cumulative = 1.11884
ExecutionTime = 2.96 s  ClockTime = 3 s

Time = 153

smoothSolver:  Solving for Ux, Initial residual = 0.000183561, Final residual = 1.10838e-05, No Iterations 4
smoothSolver:  Solving for Uy, Initial residual = 0.00051747, Final residual = 2.78136e-05, No Iterations 3
GAMG:  Solving for p, Initial residual = 0.00291386, Final residual = 0.000246925, No Iterations 1
time step continuity errors : sum local = 0.00492494, global = -0.000958132, cumulative = 1.11788
ExecutionTime = 2.97 s  ClockTime = 3 s

Time = 154

smoothSolver:  Solving for Ux, Initial residual = 0.00018039, Final residual = 1.09134e-05, No Iterations 4
smoothSolver:  Solving for Uy, Initial residual = 0.00048588, Final residual = 2.62826e-05, No Iterations 3
GAMG:  Solving for p, Initial residual = 0.0028621, Final residual = 0.000107358, No Iterations 2
time step continuity errors : sum local = 0.0021407, global = 3.55921e-05, cumulative = 1.11792
ExecutionTime = 2.99 s  ClockTime = 3 s

Time = 155

smoothSolver:  Solving for Ux, Initial residual = 0.000177348, Final residual = 1.07416e-05, No Iterations 4
smoothSolver:  Solving for Uy, Initial residual = 0.000449312, Final residual = 2.46825e-05, No Iterations 3
GAMG:  Solving for p, Initial residual = 0.00258029, Final residual = 0.000215252, No Iterations 1
time step continuity errors : sum local = 0.00429601, global = -0.000995167, cumulative = 1.11692
ExecutionTime = 3 s  ClockTime = 3 s

Time = 156

smoothSolver:  Solving for Ux, Initial residual = 0.000174387, Final residual = 1.05874e-05, No Iterations 4
smoothSolver:  Solving for Uy, Initial residual = 0.000420897, Final residual = 2.34857e-05, No Iterations 3
GAMG:  Solving for p, Initial residual = 0.00257703, Final residual = 9.07362e-05, No Iterations 2
time step continuity errors : sum local = 0.00181039, global = 0.000208741, cumulative = 1.11713
ExecutionTime = 3.03 s  ClockTime = 3 s

Time = 157

smoothSolver:  Solving for Ux, Initial residual = 0.000171508, Final residual = 1.04332e-05, No Iterations 4
smoothSolver:  Solving for Uy, Initial residual = 0.000393542, Final residual = 2.21609e-05, No Iterations 3
GAMG:  Solving for p, Initial residual = 0.00230141, Final residual = 0.000159105, No Iterations 1
time step continuity errors : sum local = 0.00317598, global = -0.000392075, cumulative = 1.11674
ExecutionTime = 3.04 s  ClockTime = 3 s

Time = 158

smoothSolver:  Solving for Ux, Initial residual = 0.000168859, Final residual = 1.02934e-05, No Iterations 4
smoothSolver:  Solving for Uy, Initial residual = 0.000371244, Final residual = 2.13012e-05, No Iterations 3
GAMG:  Solving for p, Initial residual = 0.00229422, Final residual = 0.000196098, No Iterations 1
time step continuity errors : sum local = 0.00391273, global = -0.000843903, cumulative = 1.1159
ExecutionTime = 3.05 s  ClockTime = 3 s

Time = 159

smoothSolver:  Solving for Ux, Initial residual = 0.000166243, Final residual = 1.01522e-05, No Iterations 4
smoothSolver:  Solving for Uy, Initial residual = 0.000347058, Final residual = 2.02901e-05, No Iterations 3
GAMG:  Solving for p, Initial residual = 0.0021958, Final residual = 7.82673e-05, No Iterations 2
time step continuity errors : sum local = 0.00156087, global = 0.00046874, cumulative = 1.11636
ExecutionTime = 3.07 s  ClockTime = 3 s

Time = 160

smoothSolver:  Solving for Ux, Initial residual = 0.000163661, Final residual = 1.00139e-05, No Iterations 4
smoothSolver:  Solving for Uy, Initial residual = 0.000324919, Final residual = 1.89628e-05, No Iterations 3
GAMG:  Solving for p, Initial residual = 0.00197215, Final residual = 9.78277e-05, No Iterations 1
time step continuity errors : sum local = 0.00194949, global = 0.000234131, cumulative = 1.1166
ExecutionTime = 3.09 s  ClockTime = 3 s

Time = 161

smoothSolver:  Solving for Ux, Initial residual = 0.000161365, Final residual = 9.89273e-06, No Iterations 4
smoothSolver:  Solving for Uy, Initial residual = 0.000312409, Final residual = 1.84576e-05, No Iterations 3
GAMG:  Solving for p, Initial residual = 0.00193642, Final residual = 0.000126567, No Iterations 1
time step continuity errors : sum local = 0.00252064, global = 6.38913e-06, cumulative = 1.1166
ExecutionTime = 3.1 s  ClockTime = 3 s

Time = 162

smoothSolver:  Solving for Ux, Initial residual = 0.000159149, Final residual = 9.77267e-06, No Iterations 4
smoothSolver:  Solving for Uy, Initial residual = 0.000296802, Final residual = 1.78002e-05, No Iterations 3
GAMG:  Solving for p, Initial residual = 0.00187102, Final residual = 0.00015815, No Iterations 1
time step continuity errors : sum local = 0.00314716, global = 0.000110176, cumulative = 1.11671
ExecutionTime = 3.12 s  ClockTime = 4 s

Time = 163

smoothSolver:  Solving for Ux, Initial residual = 0.00015698, Final residual = 9.65481e-06, No Iterations 4
smoothSolver:  Solving for Uy, Initial residual = 0.00028128, Final residual = 1.70834e-05, No Iterations 3
GAMG:  Solving for p, Initial residual = 0.00175926, Final residual = 0.00015465, No Iterations 1
time step continuity errors : sum local = 0.00307486, global = 0.000314223, cumulative = 1.11703
ExecutionTime = 3.13 s  ClockTime = 4 s

Time = 164

smoothSolver:  Solving for Ux, Initial residual = 0.000154902, Final residual = 9.54001e-06, No Iterations 4
smoothSolver:  Solving for Uy, Initial residual = 0.000268572, Final residual = 1.64294e-05, No Iterations 3
GAMG:  Solving for p, Initial residual = 0.00164633, Final residual = 0.000131486, No Iterations 1
time step continuity errors : sum local = 0.00261024, global = 0.000406724, cumulative = 1.11744
ExecutionTime = 3.16 s  ClockTime = 4 s

Time = 165

smoothSolver:  Solving for Ux, Initial residual = 0.000152962, Final residual = 9.43015e-06, No Iterations 4
smoothSolver:  Solving for Uy, Initial residual = 0.000258449, Final residual = 1.59354e-05, No Iterations 3
GAMG:  Solving for p, Initial residual = 0.00156441, Final residual = 0.000110809, No Iterations 1
time step continuity errors : sum local = 0.00219566, global = 0.000464271, cumulative = 1.1179
ExecutionTime = 3.17 s  ClockTime = 4 s

Time = 166

smoothSolver:  Solving for Ux, Initial residual = 0.000151126, Final residual = 9.32753e-06, No Iterations 4
smoothSolver:  Solving for Uy, Initial residual = 0.000248629, Final residual = 1.55027e-05, No Iterations 3
GAMG:  Solving for p, Initial residual = 0.00150224, Final residual = 0.000107998, No Iterations 1
time step continuity errors : sum local = 0.00213703, global = 0.000561769, cumulative = 1.11846
ExecutionTime = 3.18 s  ClockTime = 4 s

Time = 167

smoothSolver:  Solving for Ux, Initial residual = 0.000149379, Final residual = 9.23042e-06, No Iterations 4
smoothSolver:  Solving for Uy, Initial residual = 0.000238657, Final residual = 1.50813e-05, No Iterations 3
GAMG:  Solving for p, Initial residual = 0.00143867, Final residual = 0.000111483, No Iterations 1
time step continuity errors : sum local = 0.00220327, global = 0.000707088, cumulative = 1.11917
ExecutionTime = 3.2 s  ClockTime = 4 s

Time = 168

smoothSolver:  Solving for Ux, Initial residual = 0.000147713, Final residual = 9.13719e-06, No Iterations 4
smoothSolver:  Solving for Uy, Initial residual = 0.00022912, Final residual = 1.46759e-05, No Iterations 3
GAMG:  Solving for p, Initial residual = 0.00136995, Final residual = 0.000114942, No Iterations 1
time step continuity errors : sum local = 0.00226858, global = 0.000841126, cumulative = 1.12001
ExecutionTime = 3.22 s  ClockTime = 4 s

Time = 169

smoothSolver:  Solving for Ux, Initial residual = 0.000146134, Final residual = 9.04718e-06, No Iterations 4
smoothSolver:  Solving for Uy, Initial residual = 0.000220465, Final residual = 1.42915e-05, No Iterations 3
GAMG:  Solving for p, Initial residual = 0.00129943, Final residual = 0.000112513, No Iterations 1
time step continuity errors : sum local = 0.00221706, global = 0.000917162, cumulative = 1.12093
[...]
smoothSolver:  Solving for Uy, Initial residual = 2.86333e-06, Final residual = 1.94507e-07, No Iterations 5
GAMG:  Solving for p, Initial residual = 6.53143e-05, Final residual = 5.87947e-06, No Iterations 1
time step continuity errors : sum local = 0.000126758, global = 2.93346e-06, cumulative = 1.11767
ExecutionTime = 35.17 s  ClockTime = 36 s

Time = 1960

smoothSolver:  Solving for Ux, Initial residual = 1.14998e-05, Final residual = 1.14627e-06, No Iterations 3
smoothSolver:  Solving for Uy, Initial residual = 2.89573e-06, Final residual = 1.95971e-07, No Iterations 5
GAMG:  Solving for p, Initial residual = 6.32257e-05, Final residual = 5.09761e-06, No Iterations 1
time step continuity errors : sum local = 0.000109907, global = 2.3232e-06, cumulative = 1.11767
ExecutionTime = 35.19 s  ClockTime = 36 s

Time = 1961

smoothSolver:  Solving for Ux, Initial residual = 1.14746e-05, Final residual = 6.92852e-07, No Iterations 4
smoothSolver:  Solving for Uy, Initial residual = 2.68423e-06, Final residual = 1.8036e-07, No Iterations 5
GAMG:  Solving for p, Initial residual = 6.21893e-05, Final residual = 3.35334e-06, No Iterations 2
time step continuity errors : sum local = 7.23035e-05, global = -4.33765e-06, cumulative = 1.11767
ExecutionTime = 35.21 s  ClockTime = 36 s

Time = 1962

smoothSolver:  Solving for Ux, Initial residual = 1.1464e-05, Final residual = 6.90236e-07, No Iterations 4
smoothSolver:  Solving for Uy, Initial residual = 2.95655e-06, Final residual = 2.00089e-07, No Iterations 5
GAMG:  Solving for p, Initial residual = 6.52556e-05, Final residual = 2.46401e-06, No Iterations 2
time step continuity errors : sum local = 5.31334e-05, global = -3.7685e-07, cumulative = 1.11767
ExecutionTime = 35.23 s  ClockTime = 36 s

Time = 1963

smoothSolver:  Solving for Ux, Initial residual = 1.14388e-05, Final residual = 1.14245e-06, No Iterations 3
smoothSolver:  Solving for Uy, Initial residual = 2.92465e-06, Final residual = 1.98541e-07, No Iterations 5
GAMG:  Solving for p, Initial residual = 6.41975e-05, Final residual = 5.90021e-06, No Iterations 1
time step continuity errors : sum local = 0.000127238, global = -4.13276e-07, cumulative = 1.11767
ExecutionTime = 35.25 s  ClockTime = 36 s

Time = 1964

smoothSolver:  Solving for Ux, Initial residual = 1.14135e-05, Final residual = 6.90737e-07, No Iterations 4
smoothSolver:  Solving for Uy, Initial residual = 2.70408e-06, Final residual = 1.81992e-07, No Iterations 5
GAMG:  Solving for p, Initial residual = 6.39246e-05, Final residual = 2.42304e-06, No Iterations 2
time step continuity errors : sum local = 5.22556e-05, global = 8.95911e-07, cumulative = 1.11767
ExecutionTime = 35.27 s  ClockTime = 36 s

Time = 1965

smoothSolver:  Solving for Ux, Initial residual = 1.13908e-05, Final residual = 6.86763e-07, No Iterations 4
smoothSolver:  Solving for Uy, Initial residual = 2.8559e-06, Final residual = 1.92904e-07, No Iterations 5
GAMG:  Solving for p, Initial residual = 6.41743e-05, Final residual = 6.12191e-06, No Iterations 1
time step continuity errors : sum local = 0.000132031, global = 1.50613e-06, cumulative = 1.11767
ExecutionTime = 35.28 s  ClockTime = 36 s

Time = 1966

smoothSolver:  Solving for Ux, Initial residual = 1.13675e-05, Final residual = 6.83536e-07, No Iterations 4
smoothSolver:  Solving for Uy, Initial residual = 2.86608e-06, Final residual = 1.94189e-07, No Iterations 5
GAMG:  Solving for p, Initial residual = 6.45696e-05, Final residual = 6.39187e-06, No Iterations 1
time step continuity errors : sum local = 0.00013786, global = 1.47408e-06, cumulative = 1.11767
ExecutionTime = 35.31 s  ClockTime = 36 s

Time = 1967

smoothSolver:  Solving for Ux, Initial residual = 1.13447e-05, Final residual = 1.13269e-06, No Iterations 3
smoothSolver:  Solving for Uy, Initial residual = 2.85865e-06, Final residual = 1.93742e-07, No Iterations 5
GAMG:  Solving for p, Initial residual = 6.35912e-05, Final residual = 4.39358e-06, No Iterations 2
time step continuity errors : sum local = 9.47657e-05, global = -2.02265e-06, cumulative = 1.11767
ExecutionTime = 35.32 s  ClockTime = 36 s

Time = 1968

smoothSolver:  Solving for Ux, Initial residual = 1.13294e-05, Final residual = 6.86955e-07, No Iterations 4
smoothSolver:  Solving for Uy, Initial residual = 2.74313e-06, Final residual = 1.82648e-07, No Iterations 5
GAMG:  Solving for p, Initial residual = 6.66994e-05, Final residual = 2.32621e-06, No Iterations 2
time step continuity errors : sum local = 5.01771e-05, global = -4.60439e-06, cumulative = 1.11767
ExecutionTime = 35.34 s  ClockTime = 36 s

Time = 1969

smoothSolver:  Solving for Ux, Initial residual = 1.1316e-05, Final residual = 6.82983e-07, No Iterations 4
smoothSolver:  Solving for Uy, Initial residual = 2.84654e-06, Final residual = 1.9265e-07, No Iterations 5
GAMG:  Solving for p, Initial residual = 6.40245e-05, Final residual = 1.32528e-06, No Iterations 2
time step continuity errors : sum local = 2.85883e-05, global = -4.73652e-06, cumulative = 1.11766
ExecutionTime = 35.36 s  ClockTime = 36 s

Time = 1970

smoothSolver:  Solving for Ux, Initial residual = 1.13068e-05, Final residual = 6.8032e-07, No Iterations 4
smoothSolver:  Solving for Uy, Initial residual = 2.84934e-06, Final residual = 1.93882e-07, No Iterations 5
GAMG:  Solving for p, Initial residual = 6.18334e-05, Final residual = 5.20279e-06, No Iterations 1
time step continuity errors : sum local = 0.00011224, global = -6.03238e-06, cumulative = 1.11766
ExecutionTime = 35.38 s  ClockTime = 36 s

Time = 1971

smoothSolver:  Solving for Ux, Initial residual = 1.12964e-05, Final residual = 1.12761e-06, No Iterations 3
smoothSolver:  Solving for Uy, Initial residual = 2.84793e-06, Final residual = 1.93533e-07, No Iterations 5
GAMG:  Solving for p, Initial residual = 6.29201e-05, Final residual = 2.16295e-06, No Iterations 2
time step continuity errors : sum local = 4.66639e-05, global = -1.03645e-06, cumulative = 1.11766
ExecutionTime = 35.39 s  ClockTime = 36 s

Time = 1972

smoothSolver:  Solving for Ux, Initial residual = 1.12862e-05, Final residual = 6.83424e-07, No Iterations 4
smoothSolver:  Solving for Uy, Initial residual = 2.65181e-06, Final residual = 1.77565e-07, No Iterations 5
GAMG:  Solving for p, Initial residual = 6.08988e-05, Final residual = 5.53163e-06, No Iterations 1
time step continuity errors : sum local = 0.00011935, global = 8.5589e-07, cumulative = 1.11766
ExecutionTime = 35.41 s  ClockTime = 36 s

Time = 1973

smoothSolver:  Solving for Ux, Initial residual = 1.1278e-05, Final residual = 6.79591e-07, No Iterations 4
smoothSolver:  Solving for Uy, Initial residual = 2.82836e-06, Final residual = 1.90382e-07, No Iterations 5
GAMG:  Solving for p, Initial residual = 6.12105e-05, Final residual = 5.28082e-06, No Iterations 1
time step continuity errors : sum local = 0.000113944, global = 2.06946e-06, cumulative = 1.11766
ExecutionTime = 35.42 s  ClockTime = 36 s

Time = 1974

smoothSolver:  Solving for Ux, Initial residual = 1.12688e-05, Final residual = 1.12564e-06, No Iterations 3
smoothSolver:  Solving for Uy, Initial residual = 2.84022e-06, Final residual = 1.91359e-07, No Iterations 5
GAMG:  Solving for p, Initial residual = 6.09671e-05, Final residual = 5.29689e-06, No Iterations 1
time step continuity errors : sum local = 0.000114297, global = 2.00321e-06, cumulative = 1.11766
ExecutionTime = 35.45 s  ClockTime = 36 s

Time = 1975

smoothSolver:  Solving for Ux, Initial residual = 1.12574e-05, Final residual = 6.80963e-07, No Iterations 4
smoothSolver:  Solving for Uy, Initial residual = 2.62369e-06, Final residual = 1.75784e-07, No Iterations 5
GAMG:  Solving for p, Initial residual = 6.09351e-05, Final residual = 4.20254e-06, No Iterations 2
time step continuity errors : sum local = 9.06869e-05, global = -4.65868e-06, cumulative = 1.11766
ExecutionTime = 35.46 s  ClockTime = 36 s

Time = 1976

smoothSolver:  Solving for Ux, Initial residual = 1.12646e-05, Final residual = 6.7919e-07, No Iterations 4
smoothSolver:  Solving for Uy, Initial residual = 2.80228e-06, Final residual = 1.90241e-07, No Iterations 5
GAMG:  Solving for p, Initial residual = 6.49829e-05, Final residual = 2.8918e-06, No Iterations 2
time step continuity errors : sum local = 6.24037e-05, global = -5.35613e-06, cumulative = 1.11765
ExecutionTime = 35.48 s  ClockTime = 36 s

Time = 1977

smoothSolver:  Solving for Ux, Initial residual = 1.12529e-05, Final residual = 6.76732e-07, No Iterations 4
smoothSolver:  Solving for Uy, Initial residual = 2.88748e-06, Final residual = 1.96985e-07, No Iterations 5
GAMG:  Solving for p, Initial residual = 6.48548e-05, Final residual = 1.96227e-06, No Iterations 2
time step continuity errors : sum local = 4.235e-05, global = -6.5288e-07, cumulative = 1.11765
ExecutionTime = 35.5 s  ClockTime = 36 s

Time = 1978

smoothSolver:  Solving for Ux, Initial residual = 1.124e-05, Final residual = 1.12148e-06, No Iterations 3
smoothSolver:  Solving for Uy, Initial residual = 2.85591e-06, Final residual = 1.91532e-07, No Iterations 5
GAMG:  Solving for p, Initial residual = 6.13527e-05, Final residual = 5.01026e-06, No Iterations 1
time step continuity errors : sum local = 0.000108139, global = 9.92885e-07, cumulative = 1.11765
ExecutionTime = 35.52 s  ClockTime = 36 s

Time = 1979

smoothSolver:  Solving for Ux, Initial residual = 1.12276e-05, Final residual = 6.7863e-07, No Iterations 4
smoothSolver:  Solving for Uy, Initial residual = 2.63643e-06, Final residual = 1.75623e-07, No Iterations 5
GAMG:  Solving for p, Initial residual = 6.10098e-05, Final residual = 1.88039e-06, No Iterations 2
time step continuity errors : sum local = 4.05871e-05, global = 1.65464e-06, cumulative = 1.11765
ExecutionTime = 35.54 s  ClockTime = 36 s

Time = 1980

smoothSolver:  Solving for Ux, Initial residual = 1.1218e-05, Final residual = 6.75186e-07, No Iterations 4
smoothSolver:  Solving for Uy, Initial residual = 2.7862e-06, Final residual = 1.88396e-07, No Iterations 5
GAMG:  Solving for p, Initial residual = 6.15331e-05, Final residual = 5.06988e-06, No Iterations 1
time step continuity errors : sum local = 0.000109434, global = 2.27174e-06, cumulative = 1.11765
ExecutionTime = 35.55 s  ClockTime = 36 s

Time = 1981

smoothSolver:  Solving for Ux, Initial residual = 1.12083e-05, Final residual = 1.11836e-06, No Iterations 3
smoothSolver:  Solving for Uy, Initial residual = 2.8129e-06, Final residual = 1.89844e-07, No Iterations 5
GAMG:  Solving for p, Initial residual = 6.06171e-05, Final residual = 5.21372e-06, No Iterations 1
time step continuity errors : sum local = 0.000112544, global = 1.56707e-06, cumulative = 1.11766
ExecutionTime = 35.57 s  ClockTime = 36 s

Time = 1982

smoothSolver:  Solving for Ux, Initial residual = 1.1197e-05, Final residual = 6.76651e-07, No Iterations 4
smoothSolver:  Solving for Uy, Initial residual = 2.61047e-06, Final residual = 1.74708e-07, No Iterations 5
GAMG:  Solving for p, Initial residual = 6.04009e-05, Final residual = 4.02903e-06, No Iterations 2
time step continuity errors : sum local = 8.69751e-05, global = -5.72603e-06, cumulative = 1.11765
ExecutionTime = 35.59 s  ClockTime = 36 s

Time = 1983

smoothSolver:  Solving for Ux, Initial residual = 1.12025e-05, Final residual = 6.74721e-07, No Iterations 4
smoothSolver:  Solving for Uy, Initial residual = 2.80763e-06, Final residual = 1.88638e-07, No Iterations 5
GAMG:  Solving for p, Initial residual = 6.44666e-05, Final residual = 2.43078e-06, No Iterations 2
time step continuity errors : sum local = 5.2475e-05, global = -7.13269e-06, cumulative = 1.11764
ExecutionTime = 35.6 s  ClockTime = 36 s

Time = 1984

smoothSolver:  Solving for Ux, Initial residual = 1.11923e-05, Final residual = 1.11795e-06, No Iterations 3
smoothSolver:  Solving for Uy, Initial residual = 2.85407e-06, Final residual = 1.9379e-07, No Iterations 5
GAMG:  Solving for p, Initial residual = 6.24188e-05, Final residual = 1.64534e-06, No Iterations 2
time step continuity errors : sum local = 3.55228e-05, global = -3.16672e-06, cumulative = 1.11764
ExecutionTime = 35.62 s  ClockTime = 36 s

Time = 1985

smoothSolver:  Solving for Ux, Initial residual = 1.11806e-05, Final residual = 6.76962e-07, No Iterations 4
smoothSolver:  Solving for Uy, Initial residual = 2.64931e-06, Final residual = 1.78186e-07, No Iterations 5
GAMG:  Solving for p, Initial residual = 5.88683e-05, Final residual = 4.6526e-06, No Iterations 1
time step continuity errors : sum local = 0.000100458, global = -1.6832e-06, cumulative = 1.11764
ExecutionTime = 35.64 s  ClockTime = 36 s

Time = 1986

smoothSolver:  Solving for Ux, Initial residual = 1.11722e-05, Final residual = 6.73073e-07, No Iterations 4
smoothSolver:  Solving for Uy, Initial residual = 2.81909e-06, Final residual = 1.90534e-07, No Iterations 5
GAMG:  Solving for p, Initial residual = 5.98534e-05, Final residual = 5.37152e-06, No Iterations 1
time step continuity errors : sum local = 0.000115986, global = -2.02351e-07, cumulative = 1.11764
ExecutionTime = 35.66 s  ClockTime = 36 s

Time = 1987

smoothSolver:  Solving for Ux, Initial residual = 1.11629e-05, Final residual = 1.11434e-06, No Iterations 3
smoothSolver:  Solving for Uy, Initial residual = 2.82614e-06, Final residual = 1.90948e-07, No Iterations 5
GAMG:  Solving for p, Initial residual = 6.10471e-05, Final residual = 2.70404e-06, No Iterations 2
time step continuity errors : sum local = 5.83909e-05, global = 2.73225e-06, cumulative = 1.11764
ExecutionTime = 35.67 s  ClockTime = 36 s

Time = 1988

smoothSolver:  Solving for Ux, Initial residual = 1.11512e-05, Final residual = 6.74785e-07, No Iterations 4
smoothSolver:  Solving for Uy, Initial residual = 2.61645e-06, Final residual = 1.76482e-07, No Iterations 5
GAMG:  Solving for p, Initial residual = 6.01494e-05, Final residual = 5.82623e-06, No Iterations 1
time step continuity errors : sum local = 0.000125813, global = 3.80281e-06, cumulative = 1.11764
ExecutionTime = 35.69 s  ClockTime = 36 s

Time = 1989

smoothSolver:  Solving for Ux, Initial residual = 1.1143e-05, Final residual = 6.70893e-07, No Iterations 4
smoothSolver:  Solving for Uy, Initial residual = 2.784e-06, Final residual = 1.88388e-07, No Iterations 5
GAMG:  Solving for p, Initial residual = 5.97707e-05, Final residual = 5.29778e-06, No Iterations 1
time step continuity errors : sum local = 0.000114407, global = 3.24298e-06, cumulative = 1.11765
ExecutionTime = 35.71 s  ClockTime = 36 s

Time = 1990

smoothSolver:  Solving for Ux, Initial residual = 1.11344e-05, Final residual = 1.11086e-06, No Iterations 3
smoothSolver:  Solving for Uy, Initial residual = 2.78832e-06, Final residual = 1.88786e-07, No Iterations 5
GAMG:  Solving for p, Initial residual = 6.03873e-05, Final residual = 3.68962e-06, No Iterations 2
time step continuity errors : sum local = 7.96822e-05, global = -5.01766e-06, cumulative = 1.11764
ExecutionTime = 35.73 s  ClockTime = 36 s

Time = 1991

smoothSolver:  Solving for Ux, Initial residual = 1.11368e-05, Final residual = 6.745e-07, No Iterations 4
smoothSolver:  Solving for Uy, Initial residual = 2.80959e-06, Final residual = 1.85117e-07, No Iterations 5
GAMG:  Solving for p, Initial residual = 6.11375e-05, Final residual = 2.09335e-06, No Iterations 2
time step continuity errors : sum local = 4.52139e-05, global = -1.39503e-06, cumulative = 1.11764
ExecutionTime = 35.75 s  ClockTime = 36 s

Time = 1992

smoothSolver:  Solving for Ux, Initial residual = 1.11281e-05, Final residual = 6.70688e-07, No Iterations 4
smoothSolver:  Solving for Uy, Initial residual = 2.85563e-06, Final residual = 1.90806e-07, No Iterations 5
GAMG:  Solving for p, Initial residual = 6.0595e-05, Final residual = 5.46548e-06, No Iterations 1
time step continuity errors : sum local = 0.000118054, global = -1.01902e-06, cumulative = 1.11764
ExecutionTime = 35.77 s  ClockTime = 36 s

Time = 1993

smoothSolver:  Solving for Ux, Initial residual = 1.1118e-05, Final residual = 1.11018e-06, No Iterations 3
smoothSolver:  Solving for Uy, Initial residual = 2.83831e-06, Final residual = 1.91038e-07, No Iterations 5
GAMG:  Solving for p, Initial residual = 6.11997e-05, Final residual = 2.16165e-06, No Iterations 2
time step continuity errors : sum local = 4.66938e-05, global = 1.29382e-06, cumulative = 1.11764
ExecutionTime = 35.79 s  ClockTime = 36 s

Time = 1994

smoothSolver:  Solving for Ux, Initial residual = 1.11037e-05, Final residual = 6.72174e-07, No Iterations 4
smoothSolver:  Solving for Uy, Initial residual = 2.56744e-06, Final residual = 1.73205e-07, No Iterations 5
GAMG:  Solving for p, Initial residual = 5.87179e-05, Final residual = 5.18331e-06, No Iterations 1
time step continuity errors : sum local = 0.000111968, global = 2.62686e-06, cumulative = 1.11764
ExecutionTime = 35.8 s  ClockTime = 36 s

Time = 1995

smoothSolver:  Solving for Ux, Initial residual = 1.10958e-05, Final residual = 6.6832e-07, No Iterations 4
smoothSolver:  Solving for Uy, Initial residual = 2.74917e-06, Final residual = 1.86332e-07, No Iterations 5
GAMG:  Solving for p, Initial residual = 5.93451e-05, Final residual = 5.00255e-06, No Iterations 1
time step continuity errors : sum local = 0.000108068, global = 3.10661e-06, cumulative = 1.11765
ExecutionTime = 35.82 s  ClockTime = 36 s

Time = 1996

smoothSolver:  Solving for Ux, Initial residual = 1.10872e-05, Final residual = 1.10627e-06, No Iterations 3
smoothSolver:  Solving for Uy, Initial residual = 2.76378e-06, Final residual = 1.87506e-07, No Iterations 5
GAMG:  Solving for p, Initial residual = 5.94755e-05, Final residual = 5.47944e-06, No Iterations 1
time step continuity errors : sum local = 0.000118376, global = 2.16138e-06, cumulative = 1.11765
ExecutionTime = 35.83 s  ClockTime = 36 s

Time = 1997

smoothSolver:  Solving for Ux, Initial residual = 1.10763e-05, Final residual = 6.69654e-07, No Iterations 4
smoothSolver:  Solving for Uy, Initial residual = 2.55723e-06, Final residual = 1.72263e-07, No Iterations 5
GAMG:  Solving for p, Initial residual = 5.94352e-05, Final residual = 3.3528e-06, No Iterations 2
time step continuity errors : sum local = 7.24362e-05, global = -4.88258e-06, cumulative = 1.11764
ExecutionTime = 35.86 s  ClockTime = 36 s

Time = 1998

smoothSolver:  Solving for Ux, Initial residual = 1.10843e-05, Final residual = 6.68508e-07, No Iterations 4
smoothSolver:  Solving for Uy, Initial residual = 2.87171e-06, Final residual = 1.91509e-07, No Iterations 5
GAMG:  Solving for p, Initial residual = 6.2136e-05, Final residual = 2.53469e-06, No Iterations 2
time step continuity errors : sum local = 5.47654e-05, global = -3.76123e-07, cumulative = 1.11764
ExecutionTime = 35.87 s  ClockTime = 36 s

Time = 1999

smoothSolver:  Solving for Ux, Initial residual = 1.10733e-05, Final residual = 1.10626e-06, No Iterations 3
smoothSolver:  Solving for Uy, Initial residual = 2.79607e-06, Final residual = 1.89928e-07, No Iterations 5
GAMG:  Solving for p, Initial residual = 6.21109e-05, Final residual = 1.77089e-06, No Iterations 2
time step continuity errors : sum local = 3.82657e-05, global = 1.16995e-06, cumulative = 1.11765
ExecutionTime = 35.89 s  ClockTime = 36 s

Time = 2000

smoothSolver:  Solving for Ux, Initial residual = 1.10592e-05, Final residual = 6.69679e-07, No Iterations 4
smoothSolver:  Solving for Uy, Initial residual = 2.54982e-06, Final residual = 1.7293e-07, No Iterations 5
GAMG:  Solving for p, Initial residual = 5.85659e-05, Final residual = 4.921e-06, No Iterations 1
time step continuity errors : sum local = 0.000106339, global = 2.31885e-06, cumulative = 1.11765
ExecutionTime = 35.94 s  ClockTime = 36 s

writeCellCentres writeCellCentres write:
    writing cell-centres field C to 2000
    Writing the x component field of the cell-centres Cx to 2000
    Writing the y component field of the cell-centres Cy to 2000
    Writing the z component field of the cell-centres Cz to 2000
End

