/*---------------------------------------------------------------------------*\
| =========                 |                                                 |
| \\      /  F ield         | OpenFOAM: The Open Source CFD Toolbox           |
|  \\    /   O peration     | Version:  2506                                  |
|   \\  /    A nd           | Website:  www.openfoam.com                      |
|    \\/     M anipulation  |                                                 |
\*---------------------------------------------------------------------------*/
Build  : _f917e866-20250814 OPENFOAM=2506 patch=250814 version=2506
Arch   : "LSB;label=32;scalar=64"
Exec   : simpleFoam
Date   : Jul 06 2026
Time   : 22:51:58
Host   : matheus-PCH-B550M-CR
PID    : 238204
I/O    : uncollated
Case   : /home/matheus/Documentos/Mestrado/modelagem_computacional/bfsDifFinitas/bfs2dData
nProcs : 1
trapFpe: Floating point exception trapping enabled (FOAM_SIGFPE).
fileModificationChecking : Monitoring run-time modified files using timeStampMaster (fileModificationSkew 5, maxFileModificationPolls 20)
allowSystemOperations : Allowing user-supplied system call operations

// * * * * * * * * * * * * * * * * * * * * * * * * * * * * * * * * * * * * * //
Create time

Create mesh for time = 0


SIMPLE: convergence criteria
    field p	 tolerance 0.0001
    field U	 tolerance 1e-06
    field "(k|epsilon|omega|f|v2)"	 tolerance 1e-05

Reading field p

Reading field U

Reading/calculating face flux field phi

Selecting incompressible transport model Newtonian
Selecting turbulence model type laminar
Selecting laminar stress model Stokes
No MRF models present

No finite volume options present

Starting time loop

Sampled set:
    Uref -> raw
    x_by_h_m04 -> raw
    x_by_h_01 -> raw
    x_by_h_39 -> raw
    x_by_h_04 -> raw
    x_by_h_41 -> raw
    x_by_h_59 -> raw
    x_by_h_06 -> raw
    x_by_h_61 -> raw
    x_by_h_10 -> raw

Time = 1

smoothSolver:  Solving for Ux, Initial residual = 1, Final residual = 0.0771452, No Iterations 2
smoothSolver:  Solving for Uy, Initial residual = 1, Final residual = 0.0646367, No Iterations 2
GAMG:  Solving for p, Initial residual = 1, Final residual = 0.0598247, No Iterations 10
time step continuity errors : sum local = 0.0252918, global = -0.00281971, cumulative = -0.00281971
ExecutionTime = 0.32 s  ClockTime = 0 s

Time = 2

smoothSolver:  Solving for Ux, Initial residual = 0.0121354, Final residual = 0.00115495, No Iterations 2
smoothSolver:  Solving for Uy, Initial residual = 0.0388994, Final residual = 0.00296987, No Iterations 2
GAMG:  Solving for p, Initial residual = 0.0882936, Final residual = 0.00417523, No Iterations 3
time step continuity errors : sum local = 0.0533585, global = 0.00654183, cumulative = 0.00372213
ExecutionTime = 0.35 s  ClockTime = 0 s

Time = 3

smoothSolver:  Solving for Ux, Initial residual = 0.0113473, Final residual = 0.00106651, No Iterations 2
smoothSolver:  Solving for Uy, Initial residual = 0.289964, Final residual = 0.0170752, No Iterations 2
GAMG:  Solving for p, Initial residual = 0.215981, Final residual = 0.0203213, No Iterations 2
time step continuity errors : sum local = 0.0976424, global = 0.0101357, cumulative = 0.0138578
ExecutionTime = 0.37 s  ClockTime = 0 s

Time = 4

smoothSolver:  Solving for Ux, Initial residual = 0.00756439, Final residual = 0.000654661, No Iterations 2
smoothSolver:  Solving for Uy, Initial residual = 0.14622, Final residual = 0.0114478, No Iterations 2
GAMG:  Solving for p, Initial residual = 0.171616, Final residual = 0.015161, No Iterations 3
time step continuity errors : sum local = 0.0470863, global = -0.00605325, cumulative = 0.0078046
ExecutionTime = 0.38 s  ClockTime = 0 s

Time = 5

smoothSolver:  Solving for Ux, Initial residual = 0.00623209, Final residual = 0.000495826, No Iterations 2
smoothSolver:  Solving for Uy, Initial residual = 0.0788584, Final residual = 0.00586815, No Iterations 2
GAMG:  Solving for p, Initial residual = 0.166248, Final residual = 0.00651601, No Iterations 2
time step continuity errors : sum local = 0.0112222, global = 0.000817174, cumulative = 0.00862177
ExecutionTime = 0.41 s  ClockTime = 0 s

Time = 6

smoothSolver:  Solving for Ux, Initial residual = 0.00613879, Final residual = 0.000505322, No Iterations 2
smoothSolver:  Solving for Uy, Initial residual = 0.0754553, Final residual = 0.00522448, No Iterations 2
GAMG:  Solving for p, Initial residual = 0.0992644, Final residual = 0.0088199, No Iterations 2
time step continuity errors : sum local = 0.0156937, global = 0.00230776, cumulative = 0.0109295
ExecutionTime = 0.42 s  ClockTime = 0 s

Time = 7

smoothSolver:  Solving for Ux, Initial residual = 0.00574339, Final residual = 0.000469102, No Iterations 2
smoothSolver:  Solving for Uy, Initial residual = 0.0532753, Final residual = 0.00349275, No Iterations 2
GAMG:  Solving for p, Initial residual = 0.105852, Final residual = 0.00954632, No Iterations 2
time step continuity errors : sum local = 0.0124101, global = 0.00138583, cumulative = 0.0123154
ExecutionTime = 0.43 s  ClockTime = 0 s

Time = 8

smoothSolver:  Solving for Ux, Initial residual = 0.0053699, Final residual = 0.000432824, No Iterations 2
smoothSolver:  Solving for Uy, Initial residual = 0.0455166, Final residual = 0.00290001, No Iterations 2
GAMG:  Solving for p, Initial residual = 0.150323, Final residual = 0.0103782, No Iterations 2
time step continuity errors : sum local = 0.00810728, global = 0.000153061, cumulative = 0.0124684
ExecutionTime = 0.45 s  ClockTime = 0 s

Time = 9

smoothSolver:  Solving for Ux, Initial residual = 0.00524815, Final residual = 0.00042766, No Iterations 2
smoothSolver:  Solving for Uy, Initial residual = 0.043754, Final residual = 0.00271315, No Iterations 2
GAMG:  Solving for p, Initial residual = 0.14069, Final residual = 0.00559438, No Iterations 2
time step continuity errors : sum local = 0.00426308, global = 1.72411e-05, cumulative = 0.0124857
ExecutionTime = 0.47 s  ClockTime = 0 s

Time = 10

smoothSolver:  Solving for Ux, Initial residual = 0.00507508, Final residual = 0.000410308, No Iterations 2
smoothSolver:  Solving for Uy, Initial residual = 0.0416112, Final residual = 0.0025058, No Iterations 2
GAMG:  Solving for p, Initial residual = 0.140058, Final residual = 0.00596231, No Iterations 2
time step continuity errors : sum local = 0.00449815, global = 0.000428857, cumulative = 0.0129145
ExecutionTime = 0.49 s  ClockTime = 1 s

Time = 11

smoothSolver:  Solving for Ux, Initial residual = 0.00488408, Final residual = 0.000397695, No Iterations 2
smoothSolver:  Solving for Uy, Initial residual = 0.0408891, Final residual = 0.00243463, No Iterations 2
GAMG:  Solving for p, Initial residual = 0.141596, Final residual = 0.0138866, No Iterations 1
time step continuity errors : sum local = 0.0104902, global = -0.000482881, cumulative = 0.0124316
ExecutionTime = 0.5 s  ClockTime = 1 s

Time = 12

smoothSolver:  Solving for Ux, Initial residual = 0.0047273, Final residual = 0.000388865, No Iterations 2
smoothSolver:  Solving for Uy, Initial residual = 0.0401238, Final residual = 0.00236542, No Iterations 2
GAMG:  Solving for p, Initial residual = 0.156922, Final residual = 0.00855871, No Iterations 2
time step continuity errors : sum local = 0.00651691, global = 0.00105256, cumulative = 0.0134842
ExecutionTime = 0.53 s  ClockTime = 1 s

Time = 13

smoothSolver:  Solving for Ux, Initial residual = 0.00452139, Final residual = 0.000378039, No Iterations 2
smoothSolver:  Solving for Uy, Initial residual = 0.0383735, Final residual = 0.00230532, No Iterations 2
GAMG:  Solving for p, Initial residual = 0.143089, Final residual = 0.011918, No Iterations 1
time step continuity errors : sum local = 0.00920168, global = -0.000699226, cumulative = 0.012785
ExecutionTime = 0.54 s  ClockTime = 1 s

Time = 14

smoothSolver:  Solving for Ux, Initial residual = 0.0043382, Final residual = 0.00037661, No Iterations 2
smoothSolver:  Solving for Uy, Initial residual = 0.0375484, Final residual = 0.00225303, No Iterations 2
GAMG:  Solving for p, Initial residual = 0.155694, Final residual = 0.00837294, No Iterations 2
time step continuity errors : sum local = 0.00665323, global = 0.00130144, cumulative = 0.0140864
ExecutionTime = 0.55 s  ClockTime = 1 s

Time = 15

smoothSolver:  Solving for Ux, Initial residual = 0.00417788, Final residual = 0.000366644, No Iterations 2
smoothSolver:  Solving for Uy, Initial residual = 0.035995, Final residual = 0.00223202, No Iterations 2
GAMG:  Solving for p, Initial residual = 0.14009, Final residual = 0.0112519, No Iterations 1
time step continuity errors : sum local = 0.00900473, global = -0.00135206, cumulative = 0.0127344
ExecutionTime = 0.57 s  ClockTime = 1 s

Time = 16

smoothSolver:  Solving for Ux, Initial residual = 0.00398203, Final residual = 0.000363912, No Iterations 2
smoothSolver:  Solving for Uy, Initial residual = 0.0351715, Final residual = 0.00218421, No Iterations 2
GAMG:  Solving for p, Initial residual = 0.143332, Final residual = 0.0126901, No Iterations 1
time step continuity errors : sum local = 0.010647, global = -0.00213122, cumulative = 0.0106031
ExecutionTime = 0.59 s  ClockTime = 1 s

Time = 17

smoothSolver:  Solving for Ux, Initial residual = 0.0038236, Final residual = 0.000362017, No Iterations 2
smoothSolver:  Solving for Uy, Initial residual = 0.0337713, Final residual = 0.00218033, No Iterations 2
GAMG:  Solving for p, Initial residual = 0.144393, Final residual = 0.0134612, No Iterations 1
time step continuity errors : sum local = 0.0115776, global = -0.001126, cumulative = 0.00947714
ExecutionTime = 0.6 s  ClockTime = 1 s

Time = 18

smoothSolver:  Solving for Ux, Initial residual = 0.00366146, Final residual = 0.000355379, No Iterations 2
smoothSolver:  Solving for Uy, Initial residual = 0.0326254, Final residual = 0.00222559, No Iterations 2
GAMG:  Solving for p, Initial residual = 0.142923, Final residual = 0.0136929, No Iterations 1
time step continuity errors : sum local = 0.0113845, global = -0.00140246, cumulative = 0.00807468
ExecutionTime = 0.62 s  ClockTime = 1 s

Time = 19

smoothSolver:  Solving for Ux, Initial residual = 0.00346951, Final residual = 0.000344454, No Iterations 2
smoothSolver:  Solving for Uy, Initial residual = 0.0314461, Final residual = 0.00220701, No Iterations 2
GAMG:  Solving for p, Initial residual = 0.143322, Final residual = 0.0135696, No Iterations 1
time step continuity errors : sum local = 0.0111417, global = -0.00184138, cumulative = 0.0062333
ExecutionTime = 0.63 s  ClockTime = 1 s

Time = 20

smoothSolver:  Solving for Ux, Initial residual = 0.00333465, Final residual = 0.000153536, No Iterations 3
smoothSolver:  Solving for Uy, Initial residual = 0.0299634, Final residual = 0.00213852, No Iterations 2
GAMG:  Solving for p, Initial residual = 0.129815, Final residual = 0.0128734, No Iterations 1
time step continuity errors : sum local = 0.0111296, global = -0.00187031, cumulative = 0.00436299
ExecutionTime = 0.65 s  ClockTime = 1 s

Time = 21

smoothSolver:  Solving for Ux, Initial residual = 0.00324831, Final residual = 0.000150078, No Iterations 3
smoothSolver:  Solving for Uy, Initial residual = 0.028837, Final residual = 0.00210462, No Iterations 2
GAMG:  Solving for p, Initial residual = 0.107219, Final residual = 0.00745745, No Iterations 2
time step continuity errors : sum local = 0.00709179, global = -0.000871883, cumulative = 0.0034911
ExecutionTime = 0.67 s  ClockTime = 1 s

Time = 22

smoothSolver:  Solving for Ux, Initial residual = 0.00322305, Final residual = 0.000156119, No Iterations 3
smoothSolver:  Solving for Uy, Initial residual = 0.0279736, Final residual = 0.00207691, No Iterations 2
GAMG:  Solving for p, Initial residual = 0.0626272, Final residual = 0.00269289, No Iterations 2
time step continuity errors : sum local = 0.00378835, global = -0.000200295, cumulative = 0.00329081
ExecutionTime = 0.69 s  ClockTime = 1 s

Time = 23

smoothSolver:  Solving for Ux, Initial residual = 0.00308596, Final residual = 0.000146984, No Iterations 3
smoothSolver:  Solving for Uy, Initial residual = 0.0264909, Final residual = 0.00199612, No Iterations 2
GAMG:  Solving for p, Initial residual = 0.0532346, Final residual = 0.00337892, No Iterations 2
time step continuity errors : sum local = 0.0049734, global = 2.84114e-05, cumulative = 0.00331922
ExecutionTime = 0.71 s  ClockTime = 1 s

Time = 24

smoothSolver:  Solving for Ux, Initial residual = 0.00295561, Final residual = 0.000141386, No Iterations 3
smoothSolver:  Solving for Uy, Initial residual = 0.0257454, Final residual = 0.00201066, No Iterations 2
GAMG:  Solving for p, Initial residual = 0.0545324, Final residual = 0.00342144, No Iterations 2
time step continuity errors : sum local = 0.0044653, global = -6.36904e-05, cumulative = 0.00325553
ExecutionTime = 0.72 s  ClockTime = 1 s

Time = 25

smoothSolver:  Solving for Ux, Initial residual = 0.00285663, Final residual = 0.000137658, No Iterations 3
smoothSolver:  Solving for Uy, Initial residual = 0.0257246, Final residual = 0.00204971, No Iterations 2
GAMG:  Solving for p, Initial residual = 0.0650717, Final residual = 0.0026362, No Iterations 2
time step continuity errors : sum local = 0.00284242, global = 0.000200591, cumulative = 0.00345612
ExecutionTime = 0.74 s  ClockTime = 1 s

Time = 26

smoothSolver:  Solving for Ux, Initial residual = 0.00278216, Final residual = 0.00013423, No Iterations 3
smoothSolver:  Solving for Uy, Initial residual = 0.025624, Final residual = 0.00204251, No Iterations 2
GAMG:  Solving for p, Initial residual = 0.0664574, Final residual = 0.0064266, No Iterations 1
time step continuity errors : sum local = 0.00629128, global = 0.000931046, cumulative = 0.00438717
ExecutionTime = 0.76 s  ClockTime = 1 s

Time = 27

smoothSolver:  Solving for Ux, Initial residual = 0.00271688, Final residual = 0.000131417, No Iterations 3
smoothSolver:  Solving for Uy, Initial residual = 0.0254472, Final residual = 0.00203437, No Iterations 2
GAMG:  Solving for p, Initial residual = 0.0676875, Final residual = 0.00356775, No Iterations 2
time step continuity errors : sum local = 0.00341752, global = 0.00057331, cumulative = 0.00496048
ExecutionTime = 0.77 s  ClockTime = 1 s

Time = 28

smoothSolver:  Solving for Ux, Initial residual = 0.0026661, Final residual = 0.000129615, No Iterations 3
smoothSolver:  Solving for Uy, Initial residual = 0.0257806, Final residual = 0.00210001, No Iterations 2
GAMG:  Solving for p, Initial residual = 0.065893, Final residual = 0.00299845, No Iterations 2
time step continuity errors : sum local = 0.0024879, global = 0.000278928, cumulative = 0.0052394
ExecutionTime = 0.79 s  ClockTime = 1 s

Time = 29

smoothSolver:  Solving for Ux, Initial residual = 0.00262009, Final residual = 0.000126499, No Iterations 3
smoothSolver:  Solving for Uy, Initial residual = 0.0258183, Final residual = 0.00209981, No Iterations 2
GAMG:  Solving for p, Initial residual = 0.0716627, Final residual = 0.00213336, No Iterations 2
time step continuity errors : sum local = 0.00149899, global = 0.000334121, cumulative = 0.00557352
ExecutionTime = 0.81 s  ClockTime = 1 s

Time = 30

smoothSolver:  Solving for Ux, Initial residual = 0.00258926, Final residual = 0.000124049, No Iterations 3
smoothSolver:  Solving for Uy, Initial residual = 0.0257519, Final residual = 0.0021041, No Iterations 2
GAMG:  Solving for p, Initial residual = 0.0738613, Final residual = 0.002925, No Iterations 2
time step continuity errors : sum local = 0.00198857, global = 0.000374205, cumulative = 0.00594773
ExecutionTime = 0.83 s  ClockTime = 1 s

Time = 31

smoothSolver:  Solving for Ux, Initial residual = 0.00256036, Final residual = 0.000122009, No Iterations 3
smoothSolver:  Solving for Uy, Initial residual = 0.0258457, Final residual = 0.00212674, No Iterations 2
GAMG:  Solving for p, Initial residual = 0.0749009, Final residual = 0.0033444, No Iterations 2
time step continuity errors : sum local = 0.00217022, global = 0.000394268, cumulative = 0.006342
ExecutionTime = 0.85 s  ClockTime = 1 s

Time = 32

smoothSolver:  Solving for Ux, Initial residual = 0.00253468, Final residual = 0.000120148, No Iterations 3
smoothSolver:  Solving for Uy, Initial residual = 0.0259579, Final residual = 0.0021443, No Iterations 2
GAMG:  Solving for p, Initial residual = 0.0769347, Final residual = 0.00362358, No Iterations 2
time step continuity errors : sum local = 0.00225019, global = 0.000426908, cumulative = 0.00676891
ExecutionTime = 0.86 s  ClockTime = 1 s

Time = 33

smoothSolver:  Solving for Ux, Initial residual = 0.00251548, Final residual = 0.000118294, No Iterations 3
smoothSolver:  Solving for Uy, Initial residual = 0.0260731, Final residual = 0.00215192, No Iterations 2
GAMG:  Solving for p, Initial residual = 0.078912, Final residual = 0.00388504, No Iterations 2
time step continuity errors : sum local = 0.0022872, global = 0.000446245, cumulative = 0.00721515
ExecutionTime = 0.88 s  ClockTime = 1 s

Time = 34

smoothSolver:  Solving for Ux, Initial residual = 0.00250116, Final residual = 0.000116384, No Iterations 3
smoothSolver:  Solving for Uy, Initial residual = 0.02621, Final residual = 0.0021547, No Iterations 2
GAMG:  Solving for p, Initial residual = 0.0833876, Final residual = 0.00404208, No Iterations 2
time step continuity errors : sum local = 0.00220569, global = 0.000468153, cumulative = 0.0076833
ExecutionTime = 0.9 s  ClockTime = 1 s

Time = 35

smoothSolver:  Solving for Ux, Initial residual = 0.00248927, Final residual = 0.000114374, No Iterations 3
smoothSolver:  Solving for Uy, Initial residual = 0.0263575, Final residual = 0.0021572, No Iterations 2
GAMG:  Solving for p, Initial residual = 0.0842926, Final residual = 0.00397365, No Iterations 2
time step continuity errors : sum local = 0.00212854, global = 0.000464656, cumulative = 0.00814796
ExecutionTime = 0.92 s  ClockTime = 1 s

Time = 36

smoothSolver:  Solving for Ux, Initial residual = 0.00248041, Final residual = 0.000112184, No Iterations 3
smoothSolver:  Solving for Uy, Initial residual = 0.0265001, Final residual = 0.00215935, No Iterations 2
GAMG:  Solving for p, Initial residual = 0.0813887, Final residual = 0.00384236, No Iterations 2
time step continuity errors : sum local = 0.002105, global = 0.000437768, cumulative = 0.00858573
ExecutionTime = 0.93 s  ClockTime = 1 s

Time = 37

smoothSolver:  Solving for Ux, Initial residual = 0.00247425, Final residual = 0.000109918, No Iterations 3
smoothSolver:  Solving for Uy, Initial residual = 0.0266459, Final residual = 0.00215839, No Iterations 2
GAMG:  Solving for p, Initial residual = 0.0766646, Final residual = 0.00364589, No Iterations 2
time step continuity errors : sum local = 0.00208007, global = 0.000392159, cumulative = 0.00897789
ExecutionTime = 0.96 s  ClockTime = 1 s

Time = 38

smoothSolver:  Solving for Ux, Initial residual = 0.0024702, Final residual = 0.00010782, No Iterations 3
smoothSolver:  Solving for Uy, Initial residual = 0.0268087, Final residual = 0.00215726, No Iterations 2
GAMG:  Solving for p, Initial residual = 0.071087, Final residual = 0.00341826, No Iterations 2
time step continuity errors : sum local = 0.00203477, global = 0.000341938, cumulative = 0.00931983
ExecutionTime = 0.97 s  ClockTime = 1 s

Time = 39

smoothSolver:  Solving for Ux, Initial residual = 0.00246595, Final residual = 0.000105951, No Iterations 3
smoothSolver:  Solving for Uy, Initial residual = 0.0269681, Final residual = 0.0021587, No Iterations 2
GAMG:  Solving for p, Initial residual = 0.0672578, Final residual = 0.00339276, No Iterations 2
time step continuity errors : sum local = 0.00209596, global = 0.000301449, cumulative = 0.00962127
ExecutionTime = 0.99 s  ClockTime = 1 s

Time = 40

smoothSolver:  Solving for Ux, Initial residual = 0.00246184, Final residual = 0.00010431, No Iterations 3
smoothSolver:  Solving for Uy, Initial residual = 0.0271077, Final residual = 0.00216065, No Iterations 2
GAMG:  Solving for p, Initial residual = 0.0652065, Final residual = 0.00323278, No Iterations 2
time step continuity errors : sum local = 0.00205805, global = 0.000272606, cumulative = 0.00989388
ExecutionTime = 1 s  ClockTime = 1 s

Time = 41

smoothSolver:  Solving for Ux, Initial residual = 0.00245759, Final residual = 0.000102854, No Iterations 3
smoothSolver:  Solving for Uy, Initial residual = 0.0272914, Final residual = 0.00216823, No Iterations 2
GAMG:  Solving for p, Initial residual = 0.0635532, Final residual = 0.00318243, No Iterations 2
time step continuity errors : sum local = 0.0020696, global = 0.000256172, cumulative = 0.0101501
ExecutionTime = 1.02 s  ClockTime = 1 s

Time = 42

smoothSolver:  Solving for Ux, Initial residual = 0.00245189, Final residual = 0.000101547, No Iterations 3
smoothSolver:  Solving for Uy, Initial residual = 0.0274516, Final residual = 0.00217711, No Iterations 2
GAMG:  Solving for p, Initial residual = 0.0618344, Final residual = 0.00308508, No Iterations 2
time step continuity errors : sum local = 0.00203657, global = 0.000250172, cumulative = 0.0104002
ExecutionTime = 1.05 s  ClockTime = 1 s

Time = 43

smoothSolver:  Solving for Ux, Initial residual = 0.00244653, Final residual = 0.000100371, No Iterations 3
smoothSolver:  Solving for Uy, Initial residual = 0.0275958, Final residual = 0.00218269, No Iterations 2
GAMG:  Solving for p, Initial residual = 0.0595785, Final residual = 0.00299072, No Iterations 2
time step continuity errors : sum local = 0.00199976, global = 0.000248877, cumulative = 0.0106491
ExecutionTime = 1.06 s  ClockTime = 1 s

Time = 44

smoothSolver:  Solving for Ux, Initial residual = 0.00244166, Final residual = 9.92359e-05, No Iterations 3
smoothSolver:  Solving for Uy, Initial residual = 0.0277175, Final residual = 0.0021876, No Iterations 2
GAMG:  Solving for p, Initial residual = 0.0568812, Final residual = 0.00285573, No Iterations 2
time step continuity errors : sum local = 0.00194474, global = 0.000247972, cumulative = 0.0108971
ExecutionTime = 1.08 s  ClockTime = 1 s

Time = 45

smoothSolver:  Solving for Ux, Initial residual = 0.00243737, Final residual = 9.80936e-05, No Iterations 3
smoothSolver:  Solving for Uy, Initial residual = 0.0278042, Final residual = 0.00218846, No Iterations 2
GAMG:  Solving for p, Initial residual = 0.0547931, Final residual = 0.00274622, No Iterations 2
time step continuity errors : sum local = 0.00189095, global = 0.000244839, cumulative = 0.0111419
ExecutionTime = 1.09 s  ClockTime = 1 s

Time = 46

smoothSolver:  Solving for Ux, Initial residual = 0.00243289, Final residual = 9.70052e-05, No Iterations 3
smoothSolver:  Solving for Uy, Initial residual = 0.0278829, Final residual = 0.00219037, No Iterations 2
GAMG:  Solving for p, Initial residual = 0.0530696, Final residual = 0.0026458, No Iterations 2
time step continuity errors : sum local = 0.00182194, global = 0.000235232, cumulative = 0.0113771
ExecutionTime = 1.12 s  ClockTime = 1 s

Time = 47

smoothSolver:  Solving for Ux, Initial residual = 0.00242726, Final residual = 0.000242193, No Iterations 2
smoothSolver:  Solving for Uy, Initial residual = 0.0279255, Final residual = 0.00219002, No Iterations 2
GAMG:  Solving for p, Initial residual = 0.0513994, Final residual = 0.00250259, No Iterations 2
time step continuity errors : sum local = 0.00174236, global = 0.000223502, cumulative = 0.0116006
ExecutionTime = 1.13 s  ClockTime = 1 s

Time = 48

smoothSolver:  Solving for Ux, Initial residual = 0.00243651, Final residual = 0.000243297, No Iterations 2
smoothSolver:  Solving for Uy, Initial residual = 0.0277057, Final residual = 0.00216864, No Iterations 2
GAMG:  Solving for p, Initial residual = 0.0507046, Final residual = 0.00246726, No Iterations 2
time step continuity errors : sum local = 0.00173404, global = 0.000206556, cumulative = 0.0118072
ExecutionTime = 1.16 s  ClockTime = 1 s

Time = 49

smoothSolver:  Solving for Ux, Initial residual = 0.00243764, Final residual = 0.000243382, No Iterations 2
smoothSolver:  Solving for Uy, Initial residual = 0.0276455, Final residual = 0.00216171, No Iterations 2
GAMG:  Solving for p, Initial residual = 0.050843, Final residual = 0.00249284, No Iterations 2
time step continuity errors : sum local = 0.00177057, global = 0.00019191, cumulative = 0.0119991
ExecutionTime = 1.17 s  ClockTime = 1 s

Time = 50

smoothSolver:  Solving for Ux, Initial residual = 0.00243565, Final residual = 0.000243118, No Iterations 2
smoothSolver:  Solving for Uy, Initial residual = 0.0276307, Final residual = 0.00215916, No Iterations 2
GAMG:  Solving for p, Initial residual = 0.0509869, Final residual = 0.00251067, No Iterations 2
time step continuity errors : sum local = 0.00179661, global = 0.000179109, cumulative = 0.0121782
ExecutionTime = 1.19 s  ClockTime = 1 s

Time = 51

smoothSolver:  Solving for Ux, Initial residual = 0.00243335, Final residual = 0.000242649, No Iterations 2
smoothSolver:  Solving for Uy, Initial residual = 0.027607, Final residual = 0.00215651, No Iterations 2
GAMG:  Solving for p, Initial residual = 0.0507712, Final residual = 0.00254742, No Iterations 2
time step continuity errors : sum local = 0.00183203, global = 0.00017118, cumulative = 0.0123494
ExecutionTime = 1.2 s  ClockTime = 1 s

Time = 52

smoothSolver:  Solving for Ux, Initial residual = 0.00242915, Final residual = 0.000242212, No Iterations 2
smoothSolver:  Solving for Uy, Initial residual = 0.0275508, Final residual = 0.00215468, No Iterations 2
GAMG:  Solving for p, Initial residual = 0.0502353, Final residual = 0.00257297, No Iterations 2
time step continuity errors : sum local = 0.00186323, global = 0.00017042, cumulative = 0.0125198
ExecutionTime = 1.23 s  ClockTime = 1 s

Time = 53

smoothSolver:  Solving for Ux, Initial residual = 0.00242365, Final residual = 0.000241655, No Iterations 2
smoothSolver:  Solving for Uy, Initial residual = 0.0274708, Final residual = 0.00215044, No Iterations 2
GAMG:  Solving for p, Initial residual = 0.0504411, Final residual = 0.00256169, No Iterations 2
time step continuity errors : sum local = 0.0018691, global = 0.000176785, cumulative = 0.0126966
ExecutionTime = 1.24 s  ClockTime = 1 s

Time = 54

smoothSolver:  Solving for Ux, Initial residual = 0.00241713, Final residual = 0.000240893, No Iterations 2
smoothSolver:  Solving for Uy, Initial residual = 0.0273975, Final residual = 0.00214593, No Iterations 2
GAMG:  Solving for p, Initial residual = 0.0501591, Final residual = 0.00258341, No Iterations 2
time step continuity errors : sum local = 0.00189396, global = 0.000175216, cumulative = 0.0128718
ExecutionTime = 1.26 s  ClockTime = 1 s

Time = 55

smoothSolver:  Solving for Ux, Initial residual = 0.00240963, Final residual = 0.000240129, No Iterations 2
smoothSolver:  Solving for Uy, Initial residual = 0.0273146, Final residual = 0.00214414, No Iterations 2
GAMG:  Solving for p, Initial residual = 0.0496047, Final residual = 0.00260411, No Iterations 2
time step continuity errors : sum local = 0.00192272, global = 0.0001765, cumulative = 0.0130483
ExecutionTime = 1.27 s  ClockTime = 1 s

Time = 56

smoothSolver:  Solving for Ux, Initial residual = 0.00240128, Final residual = 0.000239365, No Iterations 2
smoothSolver:  Solving for Uy, Initial residual = 0.0272129, Final residual = 0.00214223, No Iterations 2
GAMG:  Solving for p, Initial residual = 0.0492339, Final residual = 0.00251741, No Iterations 2
time step continuity errors : sum local = 0.00189117, global = 0.000174735, cumulative = 0.0132231
ExecutionTime = 1.3 s  ClockTime = 1 s

Time = 57

smoothSolver:  Solving for Ux, Initial residual = 0.00239153, Final residual = 0.000238349, No Iterations 2
smoothSolver:  Solving for Uy, Initial residual = 0.027109, Final residual = 0.00213887, No Iterations 2
GAMG:  Solving for p, Initial residual = 0.0483391, Final residual = 0.00260389, No Iterations 2
time step continuity errors : sum local = 0.00197366, global = 0.000170239, cumulative = 0.0133933
ExecutionTime = 1.31 s  ClockTime = 1 s

Time = 58

smoothSolver:  Solving for Ux, Initial residual = 0.00238367, Final residual = 0.000237484, No Iterations 2
smoothSolver:  Solving for Uy, Initial residual = 0.0269808, Final residual = 0.00213622, No Iterations 2
GAMG:  Solving for p, Initial residual = 0.0483522, Final residual = 0.0025648, No Iterations 2
time step continuity errors : sum local = 0.00196048, global = 0.000159503, cumulative = 0.0135528
ExecutionTime = 1.33 s  ClockTime = 1 s

Time = 59

smoothSolver:  Solving for Ux, Initial residual = 0.00237661, Final residual = 0.000236729, No Iterations 2
smoothSolver:  Solving for Uy, Initial residual = 0.0268657, Final residual = 0.00213458, No Iterations 2
GAMG:  Solving for p, Initial residual = 0.0476038, Final residual = 0.00253761, No Iterations 2
time step continuity errors : sum local = 0.00195684, global = 0.000140388, cumulative = 0.0136932
ExecutionTime = 1.35 s  ClockTime = 1 s

Time = 60

smoothSolver:  Solving for Ux, Initial residual = 0.0023693, Final residual = 0.000235924, No Iterations 2
smoothSolver:  Solving for Uy, Initial residual = 0.0267502, Final residual = 0.00212988, No Iterations 2
GAMG:  Solving for p, Initial residual = 0.0468368, Final residual = 0.00258049, No Iterations 2
time step continuity errors : sum local = 0.00200915, global = 0.000113522, cumulative = 0.0138067
ExecutionTime = 1.37 s  ClockTime = 1 s

Time = 61

smoothSolver:  Solving for Ux, Initial residual = 0.00236309, Final residual = 0.000235174, No Iterations 2
smoothSolver:  Solving for Uy, Initial residual = 0.026618, Final residual = 0.00212614, No Iterations 2
GAMG:  Solving for p, Initial residual = 0.0463502, Final residual = 0.0025416, No Iterations 2
time step continuity errors : sum local = 0.00200173, global = 8.22376e-05, cumulative = 0.0138889
ExecutionTime = 1.38 s  ClockTime = 1 s

Time = 62

smoothSolver:  Solving for Ux, Initial residual = 0.00235706, Final residual = 0.000234322, No Iterations 2
smoothSolver:  Solving for Uy, Initial residual = 0.0264953, Final residual = 0.0021219, No Iterations 2
GAMG:  Solving for p, Initial residual = 0.0460839, Final residual = 0.00259039, No Iterations 2
time step continuity errors : sum local = 0.00204738, global = 4.29692e-05, cumulative = 0.0139319
ExecutionTime = 1.4 s  ClockTime = 1 s

Time = 63

smoothSolver:  Solving for Ux, Initial residual = 0.00235104, Final residual = 0.000233517, No Iterations 2
smoothSolver:  Solving for Uy, Initial residual = 0.0263884, Final residual = 0.00211977, No Iterations 2
GAMG:  Solving for p, Initial residual = 0.0460745, Final residual = 0.00268679, No Iterations 2
time step continuity errors : sum local = 0.00212071, global = -2.78609e-06, cumulative = 0.0139291
ExecutionTime = 1.42 s  ClockTime = 1 s

Time = 64

smoothSolver:  Solving for Ux, Initial residual = 0.00234506, Final residual = 0.000232824, No Iterations 2
smoothSolver:  Solving for Uy, Initial residual = 0.0263014, Final residual = 0.00212004, No Iterations 2
GAMG:  Solving for p, Initial residual = 0.0455427, Final residual = 0.00268308, No Iterations 2
time step continuity errors : sum local = 0.00213176, global = -5.48514e-05, cumulative = 0.0138743
ExecutionTime = 1.44 s  ClockTime = 1 s

Time = 65

smoothSolver:  Solving for Ux, Initial residual = 0.00233953, Final residual = 0.000232078, No Iterations 2
smoothSolver:  Solving for Uy, Initial residual = 0.0262248, Final residual = 0.00212257, No Iterations 2
GAMG:  Solving for p, Initial residual = 0.0451789, Final residual = 0.0027072, No Iterations 2
time step continuity errors : sum local = 0.00216236, global = -0.000102456, cumulative = 0.0137718
ExecutionTime = 1.45 s  ClockTime = 1 s

Time = 66

smoothSolver:  Solving for Ux, Initial residual = 0.00233501, Final residual = 0.000231469, No Iterations 2
smoothSolver:  Solving for Uy, Initial residual = 0.0261755, Final residual = 0.00212754, No Iterations 2
GAMG:  Solving for p, Initial residual = 0.0453273, Final residual = 0.00267591, No Iterations 2
time step continuity errors : sum local = 0.00214023, global = -0.000145463, cumulative = 0.0136264
ExecutionTime = 1.47 s  ClockTime = 1 s

Time = 67

smoothSolver:  Solving for Ux, Initial residual = 0.00233088, Final residual = 0.00023088, No Iterations 2
smoothSolver:  Solving for Uy, Initial residual = 0.026151, Final residual = 0.00213446, No Iterations 2
GAMG:  Solving for p, Initial residual = 0.0454828, Final residual = 0.00265585, No Iterations 2
time step continuity errors : sum local = 0.00210597, global = -0.000178462, cumulative = 0.0134479
ExecutionTime = 1.49 s  ClockTime = 2 s

Time = 68

smoothSolver:  Solving for Ux, Initial residual = 0.002327, Final residual = 0.000230467, No Iterations 2
smoothSolver:  Solving for Uy, Initial residual = 0.026128, Final residual = 0.00214266, No Iterations 2
GAMG:  Solving for p, Initial residual = 0.045582, Final residual = 0.00261242, No Iterations 2
time step continuity errors : sum local = 0.00206271, global = -0.000198782, cumulative = 0.0132491
ExecutionTime = 1.51 s  ClockTime = 2 s

Time = 69

smoothSolver:  Solving for Ux, Initial residual = 0.00232343, Final residual = 0.000230063, No Iterations 2
smoothSolver:  Solving for Uy, Initial residual = 0.0261202, Final residual = 0.00215154, No Iterations 2
GAMG:  Solving for p, Initial residual = 0.0457035, Final residual = 0.00257003, No Iterations 2
time step continuity errors : sum local = 0.00201527, global = -0.000204064, cumulative = 0.0130451
ExecutionTime = 1.53 s  ClockTime = 2 s

Time = 70

smoothSolver:  Solving for Ux, Initial residual = 0.00232059, Final residual = 0.000229749, No Iterations 2
smoothSolver:  Solving for Uy, Initial residual = 0.026117, Final residual = 0.00216105, No Iterations 2
GAMG:  Solving for p, Initial residual = 0.0456694, Final residual = 0.00263919, No Iterations 2
time step continuity errors : sum local = 0.00205278, global = -0.000207523, cumulative = 0.0128375
ExecutionTime = 1.54 s  ClockTime = 2 s

Time = 71

smoothSolver:  Solving for Ux, Initial residual = 0.002318, Final residual = 0.000229466, No Iterations 2
smoothSolver:  Solving for Uy, Initial residual = 0.02613, Final residual = 0.00217075, No Iterations 2
GAMG:  Solving for p, Initial residual = 0.0455498, Final residual = 0.00266964, No Iterations 2
time step continuity errors : sum local = 0.00204722, global = -0.000199627, cumulative = 0.0126379
ExecutionTime = 1.56 s  ClockTime = 2 s

Time = 72

smoothSolver:  Solving for Ux, Initial residual = 0.00231522, Final residual = 0.000229326, No Iterations 2
smoothSolver:  Solving for Uy, Initial residual = 0.0261565, Final residual = 0.00218133, No Iterations 2
GAMG:  Solving for p, Initial residual = 0.0447302, Final residual = 0.00263077, No Iterations 2
time step continuity errors : sum local = 0.00201095, global = -0.000185315, cumulative = 0.0124526
ExecutionTime = 1.58 s  ClockTime = 2 s

Time = 73

smoothSolver:  Solving for Ux, Initial residual = 0.00231304, Final residual = 0.00022928, No Iterations 2
smoothSolver:  Solving for Uy, Initial residual = 0.026181, Final residual = 0.00219267, No Iterations 2
GAMG:  Solving for p, Initial residual = 0.0442841, Final residual = 0.00258933, No Iterations 2
time step continuity errors : sum local = 0.0019841, global = -0.00016673, cumulative = 0.0122859
ExecutionTime = 1.59 s  ClockTime = 2 s

Time = 74

smoothSolver:  Solving for Ux, Initial residual = 0.0023121, Final residual = 0.000229282, No Iterations 2
smoothSolver:  Solving for Uy, Initial residual = 0.0262148, Final residual = 0.00220356, No Iterations 2
GAMG:  Solving for p, Initial residual = 0.0449744, Final residual = 0.00264355, No Iterations 2
time step continuity errors : sum local = 0.00201734, global = -0.000147947, cumulative = 0.0121379
ExecutionTime = 1.61 s  ClockTime = 2 s

Time = 75

smoothSolver:  Solving for Ux, Initial residual = 0.00231185, Final residual = 0.000229397, No Iterations 2
smoothSolver:  Solving for Uy, Initial residual = 0.0262479, Final residual = 0.00221374, No Iterations 2
GAMG:  Solving for p, Initial residual = 0.0453104, Final residual = 0.00269857, No Iterations 2
time step continuity errors : sum local = 0.00206416, global = -0.000132317, cumulative = 0.0120056
ExecutionTime = 1.62 s  ClockTime = 2 s

Time = 76

smoothSolver:  Solving for Ux, Initial residual = 0.00231202, Final residual = 0.000229593, No Iterations 2
smoothSolver:  Solving for Uy, Initial residual = 0.0262879, Final residual = 0.00222243, No Iterations 2
GAMG:  Solving for p, Initial residual = 0.0456948, Final residual = 0.00275474, No Iterations 2
time step continuity errors : sum local = 0.00211412, global = -0.000121067, cumulative = 0.0118845
ExecutionTime = 1.65 s  ClockTime = 2 s

Time = 77

smoothSolver:  Solving for Ux, Initial residual = 0.00231259, Final residual = 0.000229825, No Iterations 2
smoothSolver:  Solving for Uy, Initial residual = 0.0263337, Final residual = 0.00222872, No Iterations 2
GAMG:  Solving for p, Initial residual = 0.0459773, Final residual = 0.00279339, No Iterations 2
time step continuity errors : sum local = 0.00215507, global = -0.000113548, cumulative = 0.011771
ExecutionTime = 1.66 s  ClockTime = 2 s

Time = 78

smoothSolver:  Solving for Ux, Initial residual = 0.00231433, Final residual = 0.000230141, No Iterations 2
smoothSolver:  Solving for Uy, Initial residual = 0.0263702, Final residual = 0.00223375, No Iterations 2
GAMG:  Solving for p, Initial residual = 0.0465749, Final residual = 0.00286322, No Iterations 2
time step continuity errors : sum local = 0.00220918, global = -0.000108962, cumulative = 0.011662
ExecutionTime = 1.69 s  ClockTime = 2 s

Time = 79

smoothSolver:  Solving for Ux, Initial residual = 0.00231673, Final residual = 0.000230567, No Iterations 2
smoothSolver:  Solving for Uy, Initial residual = 0.0263934, Final residual = 0.00223843, No Iterations 2
GAMG:  Solving for p, Initial residual = 0.0474257, Final residual = 0.0028949, No Iterations 2
time step continuity errors : sum local = 0.00222448, global = -0.000106403, cumulative = 0.0115556
ExecutionTime = 1.7 s  ClockTime = 2 s

Time = 80

smoothSolver:  Solving for Ux, Initial residual = 0.00231957, Final residual = 0.000231063, No Iterations 2
smoothSolver:  Solving for Uy, Initial residual = 0.0264043, Final residual = 0.00224125, No Iterations 2
GAMG:  Solving for p, Initial residual = 0.0479847, Final residual = 0.00292317, No Iterations 2
time step continuity errors : sum local = 0.00224869, global = -0.000103756, cumulative = 0.0114519
ExecutionTime = 1.72 s  ClockTime = 2 s

Time = 81

smoothSolver:  Solving for Ux, Initial residual = 0.00232245, Final residual = 0.000231668, No Iterations 2
smoothSolver:  Solving for Uy, Initial residual = 0.0264113, Final residual = 0.00224232, No Iterations 2
GAMG:  Solving for p, Initial residual = 0.0487639, Final residual = 0.0029669, No Iterations 2
time step continuity errors : sum local = 0.00228776, global = -0.000100802, cumulative = 0.0113511
ExecutionTime = 1.73 s  ClockTime = 2 s

Time = 82

smoothSolver:  Solving for Ux, Initial residual = 0.00232613, Final residual = 0.000232294, No Iterations 2
smoothSolver:  Solving for Uy, Initial residual = 0.0264048, Final residual = 0.00224146, No Iterations 2
GAMG:  Solving for p, Initial residual = 0.0493626, Final residual = 0.00299038, No Iterations 2
time step continuity errors : sum local = 0.00232069, global = -9.6971e-05, cumulative = 0.0112541
ExecutionTime = 1.75 s  ClockTime = 2 s

Time = 83

smoothSolver:  Solving for Ux, Initial residual = 0.00233007, Final residual = 0.000232985, No Iterations 2
smoothSolver:  Solving for Uy, Initial residual = 0.0264017, Final residual = 0.00224074, No Iterations 2
GAMG:  Solving for p, Initial residual = 0.0501628, Final residual = 0.0030292, No Iterations 2
time step continuity errors : sum local = 0.00236168, global = -9.30881e-05, cumulative = 0.011161
ExecutionTime = 1.77 s  ClockTime = 2 s

Time = 84

smoothSolver:  Solving for Ux, Initial residual = 0.00233413, Final residual = 8.96341e-05, No Iterations 3
smoothSolver:  Solving for Uy, Initial residual = 0.0263917, Final residual = 0.00223837, No Iterations 2
GAMG:  Solving for p, Initial residual = 0.0534906, Final residual = 0.00309968, No Iterations 2
time step continuity errors : sum local = 0.00242139, global = -7.83114e-05, cumulative = 0.0110827
ExecutionTime = 1.79 s  ClockTime = 2 s

Time = 85

smoothSolver:  Solving for Ux, Initial residual = 0.00231528, Final residual = 0.00023135, No Iterations 2
smoothSolver:  Solving for Uy, Initial residual = 0.0266767, Final residual = 0.0022634, No Iterations 2
GAMG:  Solving for p, Initial residual = 0.0515954, Final residual = 0.00304783, No Iterations 2
time step continuity errors : sum local = 0.00237672, global = -8.04452e-05, cumulative = 0.0110022
ExecutionTime = 1.8 s  ClockTime = 2 s

Time = 86

smoothSolver:  Solving for Ux, Initial residual = 0.00233505, Final residual = 8.98837e-05, No Iterations 3
smoothSolver:  Solving for Uy, Initial residual = 0.02645, Final residual = 0.00224225, No Iterations 2
GAMG:  Solving for p, Initial residual = 0.0545514, Final residual = 0.0031396, No Iterations 2
time step continuity errors : sum local = 0.00245528, global = -7.65731e-05, cumulative = 0.0109257
ExecutionTime = 1.83 s  ClockTime = 2 s

Time = 87

smoothSolver:  Solving for Ux, Initial residual = 0.00232255, Final residual = 0.000232225, No Iterations 2
smoothSolver:  Solving for Uy, Initial residual = 0.0266649, Final residual = 0.0022612, No Iterations 2
GAMG:  Solving for p, Initial residual = 0.0525745, Final residual = 0.00309578, No Iterations 2
time step continuity errors : sum local = 0.00243887, global = -0.000103989, cumulative = 0.0108217
ExecutionTime = 1.84 s  ClockTime = 2 s

Time = 88

smoothSolver:  Solving for Ux, Initial residual = 0.00234455, Final residual = 9.05793e-05, No Iterations 3
smoothSolver:  Solving for Uy, Initial residual = 0.0264331, Final residual = 0.00224164, No Iterations 2
GAMG:  Solving for p, Initial residual = 0.0563144, Final residual = 0.0032176, No Iterations 2
time step continuity errors : sum local = 0.00254566, global = -0.000127331, cumulative = 0.0106943
ExecutionTime = 1.86 s  ClockTime = 2 s

Time = 89

smoothSolver:  Solving for Ux, Initial residual = 0.00233306, Final residual = 9.00481e-05, No Iterations 3
smoothSolver:  Solving for Uy, Initial residual = 0.02667, Final residual = 0.00226411, No Iterations 2
GAMG:  Solving for p, Initial residual = 0.056744, Final residual = 0.00317915, No Iterations 2
time step continuity errors : sum local = 0.00252355, global = -0.000155918, cumulative = 0.0105384
ExecutionTime = 1.87 s  ClockTime = 2 s

Time = 90

smoothSolver:  Solving for Ux, Initial residual = 0.00233345, Final residual = 0.000233203, No Iterations 2
smoothSolver:  Solving for Uy, Initial residual = 0.0267533, Final residual = 0.00227442, No Iterations 2
GAMG:  Solving for p, Initial residual = 0.0558641, Final residual = 0.00317931, No Iterations 2
time step continuity errors : sum local = 0.00251291, global = -0.000200788, cumulative = 0.0103376
ExecutionTime = 1.9 s  ClockTime = 2 s

Time = 91

smoothSolver:  Solving for Ux, Initial residual = 0.0023595, Final residual = 9.14142e-05, No Iterations 3
smoothSolver:  Solving for Uy, Initial residual = 0.0264988, Final residual = 0.00225347, No Iterations 2
GAMG:  Solving for p, Initial residual = 0.0608168, Final residual = 0.00345028, No Iterations 2
time step continuity errors : sum local = 0.00271749, global = -0.000219443, cumulative = 0.0101182
ExecutionTime = 1.91 s  ClockTime = 2 s

Time = 92

smoothSolver:  Solving for Ux, Initial residual = 0.00234861, Final residual = 9.09185e-05, No Iterations 3
smoothSolver:  Solving for Uy, Initial residual = 0.0267432, Final residual = 0.00227742, No Iterations 2
GAMG:  Solving for p, Initial residual = 0.0622303, Final residual = 0.00353578, No Iterations 2
time step continuity errors : sum local = 0.00276779, global = -0.000229514, cumulative = 0.00988868
ExecutionTime = 1.93 s  ClockTime = 2 s

Time = 93

smoothSolver:  Solving for Ux, Initial residual = 0.00234853, Final residual = 0.000234548, No Iterations 2
smoothSolver:  Solving for Uy, Initial residual = 0.0268542, Final residual = 0.00229061, No Iterations 2
GAMG:  Solving for p, Initial residual = 0.0613156, Final residual = 0.00353156, No Iterations 2
time step continuity errors : sum local = 0.00273184, global = -0.000241581, cumulative = 0.0096471
ExecutionTime = 1.95 s  ClockTime = 2 s

Time = 94

smoothSolver:  Solving for Ux, Initial residual = 0.00237326, Final residual = 9.20773e-05, No Iterations 3
smoothSolver:  Solving for Uy, Initial residual = 0.0266283, Final residual = 0.0022726, No Iterations 2
GAMG:  Solving for p, Initial residual = 0.0669073, Final residual = 0.0037576, No Iterations 2
time step continuity errors : sum local = 0.00287764, global = -0.000213951, cumulative = 0.00943315
ExecutionTime = 1.97 s  ClockTime = 2 s

Time = 95

smoothSolver:  Solving for Ux, Initial residual = 0.00236205, Final residual = 0.000235889, No Iterations 2
smoothSolver:  Solving for Uy, Initial residual = 0.0268809, Final residual = 0.00229765, No Iterations 2
GAMG:  Solving for p, Initial residual = 0.0653295, Final residual = 0.00370948, No Iterations 2
time step continuity errors : sum local = 0.00281716, global = -0.000194005, cumulative = 0.00923914
ExecutionTime = 1.99 s  ClockTime = 2 s

Time = 96

smoothSolver:  Solving for Ux, Initial residual = 0.00238241, Final residual = 9.25222e-05, No Iterations 3
smoothSolver:  Solving for Uy, Initial residual = 0.0267328, Final residual = 0.00228634, No Iterations 2
GAMG:  Solving for p, Initial residual = 0.0708836, Final residual = 0.00388577, No Iterations 2
time step continuity errors : sum local = 0.00291024, global = -0.000127943, cumulative = 0.0091112
ExecutionTime = 2 s  ClockTime = 2 s

Time = 97

smoothSolver:  Solving for Ux, Initial residual = 0.0023705, Final residual = 0.000236306, No Iterations 2
smoothSolver:  Solving for Uy, Initial residual = 0.0270168, Final residual = 0.00231289, No Iterations 2
GAMG:  Solving for p, Initial residual = 0.0685513, Final residual = 0.00380825, No Iterations 2
time step continuity errors : sum local = 0.00283278, global = -8.36829e-05, cumulative = 0.00902752
ExecutionTime = 2.02 s  ClockTime = 2 s

Time = 98

smoothSolver:  Solving for Ux, Initial residual = 0.00239069, Final residual = 0.000238453, No Iterations 2
smoothSolver:  Solving for Uy, Initial residual = 0.0268874, Final residual = 0.00230259, No Iterations 2
GAMG:  Solving for p, Initial residual = 0.069995, Final residual = 0.00389495, No Iterations 2
time step continuity errors : sum local = 0.00288203, global = -4.17365e-05, cumulative = 0.00898578
ExecutionTime = 2.03 s  ClockTime = 2 s

Time = 99

smoothSolver:  Solving for Ux, Initial residual = 0.00240058, Final residual = 0.000239462, No Iterations 2
smoothSolver:  Solving for Uy, Initial residual = 0.0269146, Final residual = 0.00230497, No Iterations 2
GAMG:  Solving for p, Initial residual = 0.0716755, Final residual = 0.00397705, No Iterations 2
time step continuity errors : sum local = 0.00294112, global = 2.43186e-06, cumulative = 0.00898821
ExecutionTime = 2.06 s  ClockTime = 2 s

Time = 100

smoothSolver:  Solving for Ux, Initial residual = 0.00240707, Final residual = 0.000239941, No Iterations 2
smoothSolver:  Solving for Uy, Initial residual = 0.026999, Final residual = 0.002311, No Iterations 2
GAMG:  Solving for p, Initial residual = 0.0729188, Final residual = 0.00400657, No Iterations 2
time step continuity errors : sum local = 0.00294527, global = 4.21775e-05, cumulative = 0.00903039
ExecutionTime = 2.08 s  ClockTime = 2 s

Time = 101

smoothSolver:  Solving for Ux, Initial residual = 0.0024113, Final residual = 0.00024012, No Iterations 2
smoothSolver:  Solving for Uy, Initial residual = 0.0271039, Final residual = 0.00231739, No Iterations 2
GAMG:  Solving for p, Initial residual = 0.0731019, Final residual = 0.00403386, No Iterations 2
time step continuity errors : sum local = 0.00295505, global = 8.14728e-05, cumulative = 0.00911186
ExecutionTime = 2.09 s  ClockTime = 2 s

Time = 102

smoothSolver:  Solving for Ux, Initial residual = 0.00241465, Final residual = 0.000240102, No Iterations 2
smoothSolver:  Solving for Uy, Initial residual = 0.0272104, Final residual = 0.0023222, No Iterations 2
GAMG:  Solving for p, Initial residual = 0.0731016, Final residual = 0.00406132, No Iterations 2
time step continuity errors : sum local = 0.00297341, global = 0.000123428, cumulative = 0.00923529
ExecutionTime = 2.11 s  ClockTime = 2 s

Time = 103

smoothSolver:  Solving for Ux, Initial residual = 0.00241735, Final residual = 0.000239956, No Iterations 2
smoothSolver:  Solving for Uy, Initial residual = 0.0273258, Final residual = 0.00232571, No Iterations 2
GAMG:  Solving for p, Initial residual = 0.0734158, Final residual = 0.00409548, No Iterations 2
time step continuity errors : sum local = 0.0029935, global = 0.000164521, cumulative = 0.00939981
ExecutionTime = 2.13 s  ClockTime = 2 s

Time = 104

smoothSolver:  Solving for Ux, Initial residual = 0.00241982, Final residual = 0.000239714, No Iterations 2
smoothSolver:  Solving for Uy, Initial residual = 0.0274465, Final residual = 0.00232897, No Iterations 2
GAMG:  Solving for p, Initial residual = 0.073968, Final residual = 0.00411379, No Iterations 2
time step continuity errors : sum local = 0.00299968, global = 0.00019898, cumulative = 0.00959879
ExecutionTime = 2.14 s  ClockTime = 2 s

Time = 105

smoothSolver:  Solving for Ux, Initial residual = 0.00242151, Final residual = 0.000239361, No Iterations 2
smoothSolver:  Solving for Uy, Initial residual = 0.0275673, Final residual = 0.00233176, No Iterations 2
GAMG:  Solving for p, Initial residual = 0.0742189, Final residual = 0.00407476, No Iterations 2
time step continuity errors : sum local = 0.00297098, global = 0.000222005, cumulative = 0.0098208
ExecutionTime = 2.16 s  ClockTime = 2 s

Time = 106

smoothSolver:  Solving for Ux, Initial residual = 0.00242193, Final residual = 0.000238916, No Iterations 2
smoothSolver:  Solving for Uy, Initial residual = 0.0276936, Final residual = 0.00233366, No Iterations 2
GAMG:  Solving for p, Initial residual = 0.0741327, Final residual = 0.00406205, No Iterations 2
time step continuity errors : sum local = 0.00297375, global = 0.000230062, cumulative = 0.0100509
ExecutionTime = 2.18 s  ClockTime = 2 s

Time = 107

smoothSolver:  Solving for Ux, Initial residual = 0.00242127, Final residual = 0.000238347, No Iterations 2
smoothSolver:  Solving for Uy, Initial residual = 0.0278228, Final residual = 0.00233537, No Iterations 2
GAMG:  Solving for p, Initial residual = 0.0740289, Final residual = 0.00400513, No Iterations 2
time step continuity errors : sum local = 0.0029517, global = 0.000224077, cumulative = 0.0102749
ExecutionTime = 2.19 s  ClockTime = 2 s

Time = 108

smoothSolver:  Solving for Ux, Initial residual = 0.00241882, Final residual = 0.000237695, No Iterations 2
smoothSolver:  Solving for Uy, Initial residual = 0.0279591, Final residual = 0.00233728, No Iterations 2
GAMG:  Solving for p, Initial residual = 0.0737576, Final residual = 0.00400125, No Iterations 2
time step continuity errors : sum local = 0.00297076, global = 0.000209793, cumulative = 0.0104847
ExecutionTime = 2.21 s  ClockTime = 2 s

Time = 109

smoothSolver:  Solving for Ux, Initial residual = 0.00241517, Final residual = 0.000236986, No Iterations 2
smoothSolver:  Solving for Uy, Initial residual = 0.0280933, Final residual = 0.00233832, No Iterations 2
GAMG:  Solving for p, Initial residual = 0.0740372, Final residual = 0.00396563, No Iterations 2
time step continuity errors : sum local = 0.00294442, global = 0.000189556, cumulative = 0.0106743
ExecutionTime = 2.24 s  ClockTime = 2 s

Time = 110

smoothSolver:  Solving for Ux, Initial residual = 0.0024104, Final residual = 0.000236274, No Iterations 2
smoothSolver:  Solving for Uy, Initial residual = 0.0282345, Final residual = 0.00233984, No Iterations 2
GAMG:  Solving for p, Initial residual = 0.0738783, Final residual = 0.0039575, No Iterations 2
time step continuity errors : sum local = 0.00295471, global = 0.000159466, cumulative = 0.0108338
ExecutionTime = 2.25 s  ClockTime = 2 s

Time = 111

smoothSolver:  Solving for Ux, Initial residual = 0.00240525, Final residual = 0.000235473, No Iterations 2
smoothSolver:  Solving for Uy, Initial residual = 0.0283803, Final residual = 0.00234182, No Iterations 2
GAMG:  Solving for p, Initial residual = 0.0740963, Final residual = 0.00394756, No Iterations 2
time step continuity errors : sum local = 0.00295932, global = 0.000114383, cumulative = 0.0109481
ExecutionTime = 2.27 s  ClockTime = 2 s

Time = 112

smoothSolver:  Solving for Ux, Initial residual = 0.00239992, Final residual = 0.000234664, No Iterations 2
smoothSolver:  Solving for Uy, Initial residual = 0.0285305, Final residual = 0.00234425, No Iterations 2
GAMG:  Solving for p, Initial residual = 0.074091, Final residual = 0.00399426, No Iterations 2
time step continuity errors : sum local = 0.00300617, global = 5.32663e-05, cumulative = 0.0110014
ExecutionTime = 2.28 s  ClockTime = 2 s

Time = 113

smoothSolver:  Solving for Ux, Initial residual = 0.00239401, Final residual = 0.000233759, No Iterations 2
smoothSolver:  Solving for Uy, Initial residual = 0.0286811, Final residual = 0.00234752, No Iterations 2
GAMG:  Solving for p, Initial residual = 0.0741841, Final residual = 0.00404613, No Iterations 2
time step continuity errors : sum local = 0.00305347, global = -1.83038e-05, cumulative = 0.0109831
ExecutionTime = 2.31 s  ClockTime = 2 s

Time = 114

smoothSolver:  Solving for Ux, Initial residual = 0.00238706, Final residual = 0.000232805, No Iterations 2
smoothSolver:  Solving for Uy, Initial residual = 0.0288317, Final residual = 0.00235051, No Iterations 2
GAMG:  Solving for p, Initial residual = 0.0742796, Final residual = 0.00409857, No Iterations 2
time step continuity errors : sum local = 0.00310042, global = -9.01376e-05, cumulative = 0.010893
ExecutionTime = 2.32 s  ClockTime = 2 s

Time = 115

smoothSolver:  Solving for Ux, Initial residual = 0.00237924, Final residual = 0.000231801, No Iterations 2
smoothSolver:  Solving for Uy, Initial residual = 0.02898, Final residual = 0.00235244, No Iterations 2
GAMG:  Solving for p, Initial residual = 0.0745045, Final residual = 0.00409293, No Iterations 2
time step continuity errors : sum local = 0.00309756, global = -0.000153676, cumulative = 0.0107393
ExecutionTime = 2.34 s  ClockTime = 2 s

Time = 116

smoothSolver:  Solving for Ux, Initial residual = 0.00237047, Final residual = 0.000230762, No Iterations 2
smoothSolver:  Solving for Uy, Initial residual = 0.0291336, Final residual = 0.00235492, No Iterations 2
GAMG:  Solving for p, Initial residual = 0.0747955, Final residual = 0.00404005, No Iterations 2
time step continuity errors : sum local = 0.00304765, global = -0.000200672, cumulative = 0.0105386
ExecutionTime = 2.36 s  ClockTime = 2 s

Time = 117

smoothSolver:  Solving for Ux, Initial residual = 0.00236059, Final residual = 0.000229655, No Iterations 2
smoothSolver:  Solving for Uy, Initial residual = 0.0292899, Final residual = 0.00235753, No Iterations 2
GAMG:  Solving for p, Initial residual = 0.0753444, Final residual = 0.00401176, No Iterations 2
time step continuity errors : sum local = 0.00300125, global = -0.00022913, cumulative = 0.0103095
ExecutionTime = 2.38 s  ClockTime = 2 s

Time = 118

smoothSolver:  Solving for Ux, Initial residual = 0.00234972, Final residual = 0.000228475, No Iterations 2
smoothSolver:  Solving for Uy, Initial residual = 0.0294522, Final residual = 0.00236076, No Iterations 2
GAMG:  Solving for p, Initial residual = 0.075712, Final residual = 0.00404063, No Iterations 2
time step continuity errors : sum local = 0.00299916, global = -0.000236503, cumulative = 0.010073
ExecutionTime = 2.39 s  ClockTime = 2 s

Time = 119

smoothSolver:  Solving for Ux, Initial residual = 0.0023388, Final residual = 0.000227217, No Iterations 2
smoothSolver:  Solving for Uy, Initial residual = 0.0296206, Final residual = 0.00236403, No Iterations 2
GAMG:  Solving for p, Initial residual = 0.075998, Final residual = 0.00402499, No Iterations 2
time step continuity errors : sum local = 0.00296813, global = -0.000226365, cumulative = 0.00984662
ExecutionTime = 2.41 s  ClockTime = 2 s

Time = 120

smoothSolver:  Solving for Ux, Initial residual = 0.00232778, Final residual = 0.000225944, No Iterations 2
smoothSolver:  Solving for Uy, Initial residual = 0.0298029, Final residual = 0.0023685, No Iterations 2
GAMG:  Solving for p, Initial residual = 0.0763328, Final residual = 0.00400046, No Iterations 2
time step continuity errors : sum local = 0.0029313, global = -0.000206838, cumulative = 0.00963978
ExecutionTime = 2.43 s  ClockTime = 2 s

Time = 121

smoothSolver:  Solving for Ux, Initial residual = 0.00231675, Final residual = 0.000224723, No Iterations 2
smoothSolver:  Solving for Uy, Initial residual = 0.0299927, Final residual = 0.00237508, No Iterations 2
GAMG:  Solving for p, Initial residual = 0.0767594, Final residual = 0.0039368, No Iterations 2
time step continuity errors : sum local = 0.00286841, global = -0.000173079, cumulative = 0.0094667
ExecutionTime = 2.45 s  ClockTime = 2 s

Time = 122

smoothSolver:  Solving for Ux, Initial residual = 0.00230574, Final residual = 0.000223478, No Iterations 2
smoothSolver:  Solving for Uy, Initial residual = 0.0301918, Final residual = 0.00238242, No Iterations 2
GAMG:  Solving for p, Initial residual = 0.0773135, Final residual = 0.00399769, No Iterations 2
time step continuity errors : sum local = 0.00288362, global = -0.000153594, cumulative = 0.00931311
ExecutionTime = 2.46 s  ClockTime = 2 s

Time = 123

smoothSolver:  Solving for Ux, Initial residual = 0.00229475, Final residual = 0.000222126, No Iterations 2
smoothSolver:  Solving for Uy, Initial residual = 0.0303935, Final residual = 0.00238957, No Iterations 2
GAMG:  Solving for p, Initial residual = 0.0776278, Final residual = 0.00407589, No Iterations 2
time step continuity errors : sum local = 0.00292843, global = -0.000134239, cumulative = 0.00917887
ExecutionTime = 2.49 s  ClockTime = 3 s

Time = 124

smoothSolver:  Solving for Ux, Initial residual = 0.00228324, Final residual = 0.000220726, No Iterations 2
smoothSolver:  Solving for Uy, Initial residual = 0.0305995, Final residual = 0.00239722, No Iterations 2
GAMG:  Solving for p, Initial residual = 0.0778532, Final residual = 0.00408667, No Iterations 2
time step continuity errors : sum local = 0.00292594, global = -0.000110861, cumulative = 0.00906801
ExecutionTime = 2.5 s  ClockTime = 3 s

Time = 125

smoothSolver:  Solving for Ux, Initial residual = 0.00227167, Final residual = 0.000219304, No Iterations 2
smoothSolver:  Solving for Uy, Initial residual = 0.0308217, Final residual = 0.00240559, No Iterations 2
GAMG:  Solving for p, Initial residual = 0.0778821, Final residual = 0.00412504, No Iterations 2
time step continuity errors : sum local = 0.00293671, global = -8.04233e-05, cumulative = 0.00898758
ExecutionTime = 2.52 s  ClockTime = 3 s

Time = 126

smoothSolver:  Solving for Ux, Initial residual = 0.00225995, Final residual = 0.000217865, No Iterations 2
smoothSolver:  Solving for Uy, Initial residual = 0.0310465, Final residual = 0.00241424, No Iterations 2
GAMG:  Solving for p, Initial residual = 0.0781071, Final residual = 0.00411767, No Iterations 2
time step continuity errors : sum local = 0.00290554, global = -4.51046e-05, cumulative = 0.00894248
ExecutionTime = 2.53 s  ClockTime = 3 s

Time = 127

smoothSolver:  Solving for Ux, Initial residual = 0.00224813, Final residual = 0.000216432, No Iterations 2
smoothSolver:  Solving for Uy, Initial residual = 0.0312804, Final residual = 0.0024242, No Iterations 2
GAMG:  Solving for p, Initial residual = 0.0776723, Final residual = 0.00415097, No Iterations 2
time step continuity errors : sum local = 0.00292418, global = -6.79743e-06, cumulative = 0.00893568
ExecutionTime = 2.56 s  ClockTime = 3 s

Time = 128

smoothSolver:  Solving for Ux, Initial residual = 0.00223708, Final residual = 0.000215029, No Iterations 2
smoothSolver:  Solving for Uy, Initial residual = 0.0315108, Final residual = 0.00243465, No Iterations 2
GAMG:  Solving for p, Initial residual = 0.0775421, Final residual = 0.004131, No Iterations 2
time step continuity errors : sum local = 0.00291111, global = 3.27357e-05, cumulative = 0.00896842
ExecutionTime = 2.57 s  ClockTime = 3 s

Time = 129

smoothSolver:  Solving for Ux, Initial residual = 0.00222595, Final residual = 0.000213559, No Iterations 2
smoothSolver:  Solving for Uy, Initial residual = 0.0317533, Final residual = 0.00244643, No Iterations 2
GAMG:  Solving for p, Initial residual = 0.0776161, Final residual = 0.00421478, No Iterations 2
time step continuity errors : sum local = 0.00295681, global = 7.41921e-05, cumulative = 0.00904261
ExecutionTime = 2.59 s  ClockTime = 3 s

Time = 130

smoothSolver:  Solving for Ux, Initial residual = 0.00221497, Final residual = 0.000212088, No Iterations 2
smoothSolver:  Solving for Uy, Initial residual = 0.0320114, Final residual = 0.00245938, No Iterations 2
GAMG:  Solving for p, Initial residual = 0.0778945, Final residual = 0.0041466, No Iterations 2
time step continuity errors : sum local = 0.00290828, global = 0.00011948, cumulative = 0.00916209
ExecutionTime = 2.61 s  ClockTime = 3 s

Time = 131

smoothSolver:  Solving for Ux, Initial residual = 0.00220363, Final residual = 0.000210578, No Iterations 2
smoothSolver:  Solving for Uy, Initial residual = 0.0322823, Final residual = 0.00247373, No Iterations 2
GAMG:  Solving for p, Initial residual = 0.0783044, Final residual = 0.00429394, No Iterations 2
time step continuity errors : sum local = 0.00299836, global = 0.000172513, cumulative = 0.0093346
ExecutionTime = 2.62 s  ClockTime = 3 s

Time = 132

smoothSolver:  Solving for Ux, Initial residual = 0.00219215, Final residual = 0.000209042, No Iterations 2
smoothSolver:  Solving for Uy, Initial residual = 0.0325605, Final residual = 0.0024878, No Iterations 2
GAMG:  Solving for p, Initial residual = 0.0786799, Final residual = 0.00435771, No Iterations 2
time step continuity errors : sum local = 0.00301977, global = 0.000236546, cumulative = 0.00957115
ExecutionTime = 2.65 s  ClockTime = 3 s

Time = 133

smoothSolver:  Solving for Ux, Initial residual = 0.00218057, Final residual = 0.000207461, No Iterations 2
smoothSolver:  Solving for Uy, Initial residual = 0.0328648, Final residual = 0.00250315, No Iterations 2
GAMG:  Solving for p, Initial residual = 0.078403, Final residual = 0.00440994, No Iterations 2
time step continuity errors : sum local = 0.00301877, global = 0.000304879, cumulative = 0.00987603
ExecutionTime = 2.67 s  ClockTime = 3 s

Time = 134

smoothSolver:  Solving for Ux, Initial residual = 0.00216926, Final residual = 0.000205826, No Iterations 2
smoothSolver:  Solving for Uy, Initial residual = 0.0331729, Final residual = 0.00251984, No Iterations 2
GAMG:  Solving for p, Initial residual = 0.0770594, Final residual = 0.00434207, No Iterations 2
time step continuity errors : sum local = 0.00296141, global = 0.000368088, cumulative = 0.0102441
ExecutionTime = 2.68 s  ClockTime = 3 s

Time = 135

smoothSolver:  Solving for Ux, Initial residual = 0.00215789, Final residual = 0.000204187, No Iterations 2
smoothSolver:  Solving for Uy, Initial residual = 0.0334897, Final residual = 0.00253657, No Iterations 2
GAMG:  Solving for p, Initial residual = 0.0747994, Final residual = 0.00418246, No Iterations 2
time step continuity errors : sum local = 0.00285776, global = 0.000422597, cumulative = 0.0106667
ExecutionTime = 2.7 s  ClockTime = 3 s

Time = 136

smoothSolver:  Solving for Ux, Initial residual = 0.00214666, Final residual = 0.000202574, No Iterations 2
smoothSolver:  Solving for Uy, Initial residual = 0.0338063, Final residual = 0.00255435, No Iterations 2
GAMG:  Solving for p, Initial residual = 0.0735755, Final residual = 0.00412845, No Iterations 2
time step continuity errors : sum local = 0.00284024, global = 0.000471001, cumulative = 0.0111377
ExecutionTime = 2.71 s  ClockTime = 3 s

Time = 137

smoothSolver:  Solving for Ux, Initial residual = 0.00213519, Final residual = 0.000200987, No Iterations 2
smoothSolver:  Solving for Uy, Initial residual = 0.0341418, Final residual = 0.00257446, No Iterations 2
GAMG:  Solving for p, Initial residual = 0.0738845, Final residual = 0.00398595, No Iterations 2
time step continuity errors : sum local = 0.00276316, global = 0.000504996, cumulative = 0.0116427
ExecutionTime = 2.74 s  ClockTime = 3 s

Time = 138

smoothSolver:  Solving for Ux, Initial residual = 0.00212352, Final residual = 0.000199358, No Iterations 2
smoothSolver:  Solving for Uy, Initial residual = 0.0345038, Final residual = 0.00259644, No Iterations 2
GAMG:  Solving for p, Initial residual = 0.0731775, Final residual = 0.00394727, No Iterations 2
time step continuity errors : sum local = 0.0027719, global = 0.000534341, cumulative = 0.012177
ExecutionTime = 2.75 s  ClockTime = 3 s

Time = 139

smoothSolver:  Solving for Ux, Initial residual = 0.00211196, Final residual = 0.000197735, No Iterations 2
smoothSolver:  Solving for Uy, Initial residual = 0.0348832, Final residual = 0.00262059, No Iterations 2
GAMG:  Solving for p, Initial residual = 0.0729691, Final residual = 0.00388147, No Iterations 2
time step continuity errors : sum local = 0.00277169, global = 0.000556244, cumulative = 0.0127333
ExecutionTime = 2.77 s  ClockTime = 3 s

Time = 140

smoothSolver:  Solving for Ux, Initial residual = 0.00210066, Final residual = 0.000196074, No Iterations 2
smoothSolver:  Solving for Uy, Initial residual = 0.0352848, Final residual = 0.0026465, No Iterations 2
GAMG:  Solving for p, Initial residual = 0.0722189, Final residual = 0.00383773, No Iterations 2
time step continuity errors : sum local = 0.00278814, global = 0.000575283, cumulative = 0.0133086
ExecutionTime = 2.79 s  ClockTime = 3 s

Time = 141

smoothSolver:  Solving for Ux, Initial residual = 0.00208884, Final residual = 0.000194488, No Iterations 2
smoothSolver:  Solving for Uy, Initial residual = 0.0357066, Final residual = 0.00267385, No Iterations 2
GAMG:  Solving for p, Initial residual = 0.0708353, Final residual = 0.00365115, No Iterations 2
time step continuity errors : sum local = 0.00273424, global = 0.000581204, cumulative = 0.0138898
ExecutionTime = 2.81 s  ClockTime = 3 s

Time = 142

smoothSolver:  Solving for Ux, Initial residual = 0.00207764, Final residual = 0.000192955, No Iterations 2
smoothSolver:  Solving for Uy, Initial residual = 0.0361537, Final residual = 0.00270371, No Iterations 2
GAMG:  Solving for p, Initial residual = 0.0704534, Final residual = 0.00354733, No Iterations 2
time step continuity errors : sum local = 0.00270696, global = 0.000569625, cumulative = 0.0144594
ExecutionTime = 2.82 s  ClockTime = 3 s

Time = 143

smoothSolver:  Solving for Ux, Initial residual = 0.00206634, Final residual = 0.000191569, No Iterations 2
smoothSolver:  Solving for Uy, Initial residual = 0.0366115, Final residual = 0.00273529, No Iterations 2
GAMG:  Solving for p, Initial residual = 0.0694458, Final residual = 0.00340222, No Iterations 2
time step continuity errors : sum local = 0.00266753, global = 0.000541659, cumulative = 0.0150011
ExecutionTime = 2.85 s  ClockTime = 3 s

Time = 144

smoothSolver:  Solving for Ux, Initial residual = 0.00205602, Final residual = 0.00019026, No Iterations 2
smoothSolver:  Solving for Uy, Initial residual = 0.0371148, Final residual = 0.00276969, No Iterations 2
GAMG:  Solving for p, Initial residual = 0.0681444, Final residual = 0.0033055, No Iterations 2
time step continuity errors : sum local = 0.00266823, global = 0.000508251, cumulative = 0.0155093
ExecutionTime = 2.86 s  ClockTime = 3 s

Time = 145

smoothSolver:  Solving for Ux, Initial residual = 0.00204773, Final residual = 0.000189042, No Iterations 2
smoothSolver:  Solving for Uy, Initial residual = 0.0376541, Final residual = 0.00280613, No Iterations 2
GAMG:  Solving for p, Initial residual = 0.0680143, Final residual = 0.00321878, No Iterations 2
time step continuity errors : sum local = 0.00266006, global = 0.000470383, cumulative = 0.0159797
ExecutionTime = 2.88 s  ClockTime = 3 s

Time = 146

smoothSolver:  Solving for Ux, Initial residual = 0.00204205, Final residual = 0.000188087, No Iterations 2
smoothSolver:  Solving for Uy, Initial residual = 0.0382187, Final residual = 0.00284535, No Iterations 2
GAMG:  Solving for p, Initial residual = 0.0674168, Final residual = 0.0032591, No Iterations 2
time step continuity errors : sum local = 0.00272548, global = 0.000457528, cumulative = 0.0164372
ExecutionTime = 2.89 s  ClockTime = 3 s

Time = 147

smoothSolver:  Solving for Ux, Initial residual = 0.00203814, Final residual = 0.000187212, No Iterations 2
smoothSolver:  Solving for Uy, Initial residual = 0.0388368, Final residual = 0.00288539, No Iterations 2
GAMG:  Solving for p, Initial residual = 0.0673664, Final residual = 0.00327691, No Iterations 2
time step continuity errors : sum local = 0.00277015, global = 0.00046546, cumulative = 0.0169027
ExecutionTime = 2.92 s  ClockTime = 3 s

Time = 148

smoothSolver:  Solving for Ux, Initial residual = 0.00203687, Final residual = 0.000186562, No Iterations 2
smoothSolver:  Solving for Uy, Initial residual = 0.0394842, Final residual = 0.00292531, No Iterations 2
GAMG:  Solving for p, Initial residual = 0.068948, Final residual = 0.00327538, No Iterations 2
time step continuity errors : sum local = 0.00283144, global = 0.000508397, cumulative = 0.0174111
ExecutionTime = 2.93 s  ClockTime = 3 s

Time = 149

smoothSolver:  Solving for Ux, Initial residual = 0.00203862, Final residual = 0.000185916, No Iterations 2
smoothSolver:  Solving for Uy, Initial residual = 0.0401706, Final residual = 0.00296371, No Iterations 2
GAMG:  Solving for p, Initial residual = 0.0703587, Final residual = 0.00327679, No Iterations 2
time step continuity errors : sum local = 0.00290152, global = 0.000582654, cumulative = 0.0179937
ExecutionTime = 2.95 s  ClockTime = 3 s

Time = 150

smoothSolver:  Solving for Ux, Initial residual = 0.00204238, Final residual = 0.00018546, No Iterations 2
smoothSolver:  Solving for Uy, Initial residual = 0.0408695, Final residual = 0.003001, No Iterations 2
GAMG:  Solving for p, Initial residual = 0.0713098, Final residual = 0.00330021, No Iterations 2
time step continuity errors : sum local = 0.00301877, global = 0.000687202, cumulative = 0.0186809
ExecutionTime = 2.97 s  ClockTime = 3 s

Time = 151

smoothSolver:  Solving for Ux, Initial residual = 0.00204878, Final residual = 0.000185092, No Iterations 2
smoothSolver:  Solving for Uy, Initial residual = 0.0416005, Final residual = 0.00303631, No Iterations 2
GAMG:  Solving for p, Initial residual = 0.0714403, Final residual = 0.00309463, No Iterations 2
time step continuity errors : sum local = 0.00293595, global = 0.000778992, cumulative = 0.0194599
ExecutionTime = 2.98 s  ClockTime = 3 s

Time = 152

smoothSolver:  Solving for Ux, Initial residual = 0.00205889, Final residual = 0.000185185, No Iterations 2
smoothSolver:  Solving for Uy, Initial residual = 0.0423569, Final residual = 0.0030681, No Iterations 2
GAMG:  Solving for p, Initial residual = 0.0707692, Final residual = 0.00303929, No Iterations 2
time step continuity errors : sum local = 0.00303518, global = 0.000850878, cumulative = 0.0203108
ExecutionTime = 3 s  ClockTime = 3 s

Time = 153

smoothSolver:  Solving for Ux, Initial residual = 0.00207296, Final residual = 0.000185431, No Iterations 2
smoothSolver:  Solving for Uy, Initial residual = 0.0430991, Final residual = 0.00309447, No Iterations 2
GAMG:  Solving for p, Initial residual = 0.0708812, Final residual = 0.00304731, No Iterations 2
time step continuity errors : sum local = 0.00317573, global = 0.000904054, cumulative = 0.0212149
ExecutionTime = 3.02 s  ClockTime = 3 s

Time = 154

smoothSolver:  Solving for Ux, Initial residual = 0.00208834, Final residual = 0.000185739, No Iterations 2
smoothSolver:  Solving for Uy, Initial residual = 0.0438486, Final residual = 0.00311543, No Iterations 2
GAMG:  Solving for p, Initial residual = 0.0678119, Final residual = 0.00309173, No Iterations 2
time step continuity errors : sum local = 0.00328017, global = 0.000937138, cumulative = 0.022152
ExecutionTime = 3.04 s  ClockTime = 3 s

Time = 155

smoothSolver:  Solving for Ux, Initial residual = 0.00210458, Final residual = 0.000186243, No Iterations 2
smoothSolver:  Solving for Uy, Initial residual = 0.0445854, Final residual = 0.00313463, No Iterations 2
GAMG:  Solving for p, Initial residual = 0.069982, Final residual = 0.00300109, No Iterations 2
time step continuity errors : sum local = 0.00294455, global = 0.000940168, cumulative = 0.0230922
ExecutionTime = 3.06 s  ClockTime = 3 s

Time = 156

smoothSolver:  Solving for Ux, Initial residual = 0.00211719, Final residual = 0.0001865, No Iterations 2
smoothSolver:  Solving for Uy, Initial residual = 0.0444698, Final residual = 0.0030854, No Iterations 2
GAMG:  Solving for p, Initial residual = 0.0693875, Final residual = 0.00246429, No Iterations 2
time step continuity errors : sum local = 0.00275531, global = 0.000876817, cumulative = 0.023969
ExecutionTime = 3.07 s  ClockTime = 3 s

Time = 157

smoothSolver:  Solving for Ux, Initial residual = 0.00214572, Final residual = 0.000187431, No Iterations 2
smoothSolver:  Solving for Uy, Initial residual = 0.0436666, Final residual = 0.0029972, No Iterations 2
GAMG:  Solving for p, Initial residual = 0.0706745, Final residual = 0.00262635, No Iterations 2
time step continuity errors : sum local = 0.00286197, global = 0.000857563, cumulative = 0.0248265
ExecutionTime = 3.1 s  ClockTime = 3 s

Time = 158

smoothSolver:  Solving for Ux, Initial residual = 0.00216697, Final residual = 0.000188005, No Iterations 2
smoothSolver:  Solving for Uy, Initial residual = 0.0428244, Final residual = 0.00289828, No Iterations 2
GAMG:  Solving for p, Initial residual = 0.0665994, Final residual = 0.0023588, No Iterations 2
time step continuity errors : sum local = 0.00279515, global = 0.000825329, cumulative = 0.0256519
ExecutionTime = 3.11 s  ClockTime = 3 s

Time = 159

smoothSolver:  Solving for Ux, Initial residual = 0.00219409, Final residual = 0.000188901, No Iterations 2
smoothSolver:  Solving for Uy, Initial residual = 0.0419561, Final residual = 0.00280572, No Iterations 2
GAMG:  Solving for p, Initial residual = 0.0690012, Final residual = 0.00260324, No Iterations 2
time step continuity errors : sum local = 0.00284893, global = 0.000774933, cumulative = 0.0264268
ExecutionTime = 3.13 s  ClockTime = 3 s

Time = 160

smoothSolver:  Solving for Ux, Initial residual = 0.00221804, Final residual = 0.000189951, No Iterations 2
smoothSolver:  Solving for Uy, Initial residual = 0.0410871, Final residual = 0.00271398, No Iterations 2
GAMG:  Solving for p, Initial residual = 0.0658209, Final residual = 0.00223005, No Iterations 2
time step continuity errors : sum local = 0.00271135, global = 0.000683226, cumulative = 0.02711
ExecutionTime = 3.15 s  ClockTime = 3 s

Time = 161

smoothSolver:  Solving for Ux, Initial residual = 0.00226391, Final residual = 0.000191796, No Iterations 2
smoothSolver:  Solving for Uy, Initial residual = 0.0402136, Final residual = 0.0026339, No Iterations 2
GAMG:  Solving for p, Initial residual = 0.0696228, Final residual = 0.00237837, No Iterations 2
time step continuity errors : sum local = 0.00274769, global = 0.000663871, cumulative = 0.0277739
ExecutionTime = 3.17 s  ClockTime = 3 s

Time = 162

smoothSolver:  Solving for Ux, Initial residual = 0.00229315, Final residual = 0.000193473, No Iterations 2
smoothSolver:  Solving for Uy, Initial residual = 0.0395692, Final residual = 0.0025647, No Iterations 2
GAMG:  Solving for p, Initial residual = 0.0718881, Final residual = 0.00228492, No Iterations 2
time step continuity errors : sum local = 0.00284604, global = 0.000583132, cumulative = 0.028357
ExecutionTime = 3.18 s  ClockTime = 3 s

Time = 163

smoothSolver:  Solving for Ux, Initial residual = 0.00234387, Final residual = 0.000195884, No Iterations 2
smoothSolver:  Solving for Uy, Initial residual = 0.039007, Final residual = 0.00250279, No Iterations 2
GAMG:  Solving for p, Initial residual = 0.0753688, Final residual = 0.0024612, No Iterations 2
time step continuity errors : sum local = 0.0030209, global = 0.000523386, cumulative = 0.0288804
ExecutionTime = 3.2 s  ClockTime = 3 s

Time = 164

smoothSolver:  Solving for Ux, Initial residual = 0.00239041, Final residual = 0.000198282, No Iterations 2
smoothSolver:  Solving for Uy, Initial residual = 0.0386307, Final residual = 0.00244972, No Iterations 2
GAMG:  Solving for p, Initial residual = 0.0741771, Final residual = 0.00225645, No Iterations 2
time step continuity errors : sum local = 0.00296105, global = 0.000476464, cumulative = 0.0293569
ExecutionTime = 3.22 s  ClockTime = 3 s

Time = 165

smoothSolver:  Solving for Ux, Initial residual = 0.00245162, Final residual = 0.000200922, No Iterations 2
smoothSolver:  Solving for Uy, Initial residual = 0.0382908, Final residual = 0.00240263, No Iterations 2
GAMG:  Solving for p, Initial residual = 0.0728382, Final residual = 0.0019671, No Iterations 2
time step continuity errors : sum local = 0.00299146, global = 0.000582242, cumulative = 0.0299391
ExecutionTime = 3.24 s  ClockTime = 3 s

Time = 166

smoothSolver:  Solving for Ux, Initial residual = 0.0025089, Final residual = 0.000203979, No Iterations 2
smoothSolver:  Solving for Uy, Initial residual = 0.0382223, Final residual = 0.00237534, No Iterations 2
GAMG:  Solving for p, Initial residual = 0.0791307, Final residual = 0.00231969, No Iterations 2
time step continuity errors : sum local = 0.00308053, global = 0.000658374, cumulative = 0.0305975
ExecutionTime = 3.26 s  ClockTime = 3 s

Time = 167

smoothSolver:  Solving for Ux, Initial residual = 0.00256688, Final residual = 0.000207192, No Iterations 2
smoothSolver:  Solving for Uy, Initial residual = 0.0385, Final residual = 0.0023667, No Iterations 2
GAMG:  Solving for p, Initial residual = 0.0832325, Final residual = 0.00208239, No Iterations 2
time step continuity errors : sum local = 0.0030505, global = 0.000641903, cumulative = 0.0312394
ExecutionTime = 3.28 s  ClockTime = 3 s

Time = 168

smoothSolver:  Solving for Ux, Initial residual = 0.00261235, Final residual = 0.000210983, No Iterations 2
smoothSolver:  Solving for Uy, Initial residual = 0.0389722, Final residual = 0.00236571, No Iterations 2
GAMG:  Solving for p, Initial residual = 0.0797646, Final residual = 0.00209737, No Iterations 2
time step continuity errors : sum local = 0.00294472, global = 0.000669691, cumulative = 0.0319091
ExecutionTime = 3.3 s  ClockTime = 3 s

Time = 169

smoothSolver:  Solving for Ux, Initial residual = 0.00267734, Final residual = 0.000214022, No Iterations 2
smoothSolver:  Solving for Uy, Initial residual = 0.0396455, Final residual = 0.00238278, No Iterations 2
GAMG:  Solving for p, Initial residual = 0.0840011, Final residual = 0.00779018, No Iterations 1
time step continuity errors : sum local = 0.0121787, global = 0.000770763, cumulative = 0.0326799
ExecutionTime = 3.31 s  ClockTime = 3 s

Time = 170

[...]
GAMG:  Solving for p, Initial residual = 1.38593e-05, Final residual = 3.86641e-07, No Iterations 2
time step continuity errors : sum local = 1.07219e-07, global = 6.55581e-09, cumulative = -0.111535
ExecutionTime = 35.07 s  ClockTime = 35 s

Time = 1960

smoothSolver:  Solving for Ux, Initial residual = 7.04114e-06, Final residual = 6.09215e-07, No Iterations 3
smoothSolver:  Solving for Uy, Initial residual = 1.78277e-06, Final residual = 1.77913e-07, No Iterations 2
GAMG:  Solving for p, Initial residual = 1.38481e-05, Final residual = 3.8638e-07, No Iterations 2
time step continuity errors : sum local = 1.07146e-07, global = 6.51453e-09, cumulative = -0.111535
ExecutionTime = 35.09 s  ClockTime = 35 s

Time = 1961

smoothSolver:  Solving for Ux, Initial residual = 7.02597e-06, Final residual = 6.07873e-07, No Iterations 3
smoothSolver:  Solving for Uy, Initial residual = 1.78074e-06, Final residual = 1.77792e-07, No Iterations 2
GAMG:  Solving for p, Initial residual = 1.38368e-05, Final residual = 3.86116e-07, No Iterations 2
time step continuity errors : sum local = 1.07072e-07, global = 6.47293e-09, cumulative = -0.111535
ExecutionTime = 35.11 s  ClockTime = 35 s

Time = 1962

smoothSolver:  Solving for Ux, Initial residual = 7.01089e-06, Final residual = 6.06532e-07, No Iterations 3
smoothSolver:  Solving for Uy, Initial residual = 1.77868e-06, Final residual = 1.7767e-07, No Iterations 2
GAMG:  Solving for p, Initial residual = 1.38255e-05, Final residual = 3.8585e-07, No Iterations 2
time step continuity errors : sum local = 1.06998e-07, global = 6.43115e-09, cumulative = -0.111535
ExecutionTime = 35.13 s  ClockTime = 35 s

Time = 1963

smoothSolver:  Solving for Ux, Initial residual = 6.99583e-06, Final residual = 6.05192e-07, No Iterations 3
smoothSolver:  Solving for Uy, Initial residual = 1.77661e-06, Final residual = 1.77546e-07, No Iterations 2
GAMG:  Solving for p, Initial residual = 1.38145e-05, Final residual = 3.85597e-07, No Iterations 2
time step continuity errors : sum local = 1.06927e-07, global = 6.38924e-09, cumulative = -0.111535
ExecutionTime = 35.15 s  ClockTime = 35 s

Time = 1964

smoothSolver:  Solving for Ux, Initial residual = 6.98077e-06, Final residual = 6.03853e-07, No Iterations 3
smoothSolver:  Solving for Uy, Initial residual = 1.77452e-06, Final residual = 1.7742e-07, No Iterations 2
GAMG:  Solving for p, Initial residual = 1.38036e-05, Final residual = 3.85351e-07, No Iterations 2
time step continuity errors : sum local = 1.06859e-07, global = 6.34734e-09, cumulative = -0.111535
ExecutionTime = 35.16 s  ClockTime = 35 s

Time = 1965

smoothSolver:  Solving for Ux, Initial residual = 6.96573e-06, Final residual = 6.02517e-07, No Iterations 3
smoothSolver:  Solving for Uy, Initial residual = 1.77239e-06, Final residual = 7.57247e-08, No Iterations 3
GAMG:  Solving for p, Initial residual = 1.54044e-05, Final residual = 3.8683e-07, No Iterations 2
time step continuity errors : sum local = 1.07269e-07, global = 6.22582e-09, cumulative = -0.111535
ExecutionTime = 35.18 s  ClockTime = 35 s

Time = 1966

smoothSolver:  Solving for Ux, Initial residual = 6.95072e-06, Final residual = 6.01186e-07, No Iterations 3
smoothSolver:  Solving for Uy, Initial residual = 1.73367e-06, Final residual = 1.6675e-07, No Iterations 2
GAMG:  Solving for p, Initial residual = 1.31868e-05, Final residual = 3.87723e-07, No Iterations 2
time step continuity errors : sum local = 1.07516e-07, global = 6.48103e-09, cumulative = -0.111535
ExecutionTime = 35.2 s  ClockTime = 35 s

Time = 1967

smoothSolver:  Solving for Ux, Initial residual = 6.93569e-06, Final residual = 5.99857e-07, No Iterations 3
smoothSolver:  Solving for Uy, Initial residual = 1.75167e-06, Final residual = 1.7294e-07, No Iterations 2
GAMG:  Solving for p, Initial residual = 1.35951e-05, Final residual = 3.84972e-07, No Iterations 2
time step continuity errors : sum local = 1.06752e-07, global = 6.3796e-09, cumulative = -0.111535
ExecutionTime = 35.22 s  ClockTime = 35 s

Time = 1968

smoothSolver:  Solving for Ux, Initial residual = 6.9207e-06, Final residual = 5.98553e-07, No Iterations 3
smoothSolver:  Solving for Uy, Initial residual = 1.7568e-06, Final residual = 1.75174e-07, No Iterations 2
GAMG:  Solving for p, Initial residual = 1.37194e-05, Final residual = 3.83004e-07, No Iterations 2
time step continuity errors : sum local = 1.06206e-07, global = 6.16486e-09, cumulative = -0.111535
ExecutionTime = 35.23 s  ClockTime = 35 s

Time = 1969

smoothSolver:  Solving for Ux, Initial residual = 6.90572e-06, Final residual = 5.9725e-07, No Iterations 3
smoothSolver:  Solving for Uy, Initial residual = 1.75902e-06, Final residual = 7.53101e-08, No Iterations 3
GAMG:  Solving for p, Initial residual = 1.5318e-05, Final residual = 3.83965e-07, No Iterations 2
time step continuity errors : sum local = 1.06472e-07, global = 5.94433e-09, cumulative = -0.111535
ExecutionTime = 35.25 s  ClockTime = 35 s

Time = 1970

smoothSolver:  Solving for Ux, Initial residual = 6.89085e-06, Final residual = 5.95951e-07, No Iterations 3
smoothSolver:  Solving for Uy, Initial residual = 1.72372e-06, Final residual = 1.66019e-07, No Iterations 2
GAMG:  Solving for p, Initial residual = 1.31545e-05, Final residual = 3.86062e-07, No Iterations 2
time step continuity errors : sum local = 1.07053e-07, global = 6.20247e-09, cumulative = -0.111535
ExecutionTime = 35.27 s  ClockTime = 35 s

Time = 1971

smoothSolver:  Solving for Ux, Initial residual = 6.87597e-06, Final residual = 5.94649e-07, No Iterations 3
smoothSolver:  Solving for Uy, Initial residual = 1.7438e-06, Final residual = 1.72447e-07, No Iterations 2
GAMG:  Solving for p, Initial residual = 1.35581e-05, Final residual = 3.84844e-07, No Iterations 2
time step continuity errors : sum local = 1.06715e-07, global = 6.13741e-09, cumulative = -0.111535
ExecutionTime = 35.29 s  ClockTime = 35 s

Time = 1972

smoothSolver:  Solving for Ux, Initial residual = 6.86113e-06, Final residual = 5.93351e-07, No Iterations 3
smoothSolver:  Solving for Uy, Initial residual = 1.7498e-06, Final residual = 1.7478e-07, No Iterations 2
GAMG:  Solving for p, Initial residual = 1.36812e-05, Final residual = 3.82992e-07, No Iterations 2
time step continuity errors : sum local = 1.06201e-07, global = 5.95328e-09, cumulative = -0.111535
ExecutionTime = 35.31 s  ClockTime = 35 s

Time = 1973

smoothSolver:  Solving for Ux, Initial residual = 6.8463e-06, Final residual = 5.92055e-07, No Iterations 3
smoothSolver:  Solving for Uy, Initial residual = 1.75187e-06, Final residual = 7.53097e-08, No Iterations 3
GAMG:  Solving for p, Initial residual = 1.52678e-05, Final residual = 3.84028e-07, No Iterations 2
time step continuity errors : sum local = 1.06488e-07, global = 5.76049e-09, cumulative = -0.111535
ExecutionTime = 35.32 s  ClockTime = 35 s

Time = 1974

smoothSolver:  Solving for Ux, Initial residual = 6.83148e-06, Final residual = 5.90792e-07, No Iterations 3
smoothSolver:  Solving for Uy, Initial residual = 1.71584e-06, Final residual = 1.65551e-07, No Iterations 2
GAMG:  Solving for p, Initial residual = 1.31205e-05, Final residual = 3.85142e-07, No Iterations 2
time step continuity errors : sum local = 1.06796e-07, global = 6.05681e-09, cumulative = -0.111535
ExecutionTime = 35.34 s  ClockTime = 35 s

Time = 1975

smoothSolver:  Solving for Ux, Initial residual = 6.81666e-06, Final residual = 5.89529e-07, No Iterations 3
smoothSolver:  Solving for Uy, Initial residual = 1.73519e-06, Final residual = 1.71959e-07, No Iterations 2
GAMG:  Solving for p, Initial residual = 1.35182e-05, Final residual = 3.83777e-07, No Iterations 2
time step continuity errors : sum local = 1.06418e-07, global = 6.02377e-09, cumulative = -0.111535
ExecutionTime = 35.36 s  ClockTime = 35 s

Time = 1976

smoothSolver:  Solving for Ux, Initial residual = 6.80192e-06, Final residual = 5.88267e-07, No Iterations 3
smoothSolver:  Solving for Uy, Initial residual = 1.74065e-06, Final residual = 7.47189e-08, No Iterations 3
GAMG:  Solving for p, Initial residual = 1.51413e-05, Final residual = 3.83652e-07, No Iterations 2
time step continuity errors : sum local = 1.06382e-07, global = 5.77655e-09, cumulative = -0.111535
ExecutionTime = 35.38 s  ClockTime = 35 s

Time = 1977

smoothSolver:  Solving for Ux, Initial residual = 6.78727e-06, Final residual = 5.8701e-07, No Iterations 3
smoothSolver:  Solving for Uy, Initial residual = 1.70601e-06, Final residual = 1.6476e-07, No Iterations 2
GAMG:  Solving for p, Initial residual = 1.30912e-05, Final residual = 3.83047e-07, No Iterations 2
time step continuity errors : sum local = 1.06214e-07, global = 5.96273e-09, cumulative = -0.111535
ExecutionTime = 35.39 s  ClockTime = 35 s

Time = 1978

smoothSolver:  Solving for Ux, Initial residual = 6.7726e-06, Final residual = 5.8576e-07, No Iterations 3
smoothSolver:  Solving for Uy, Initial residual = 1.72657e-06, Final residual = 1.71387e-07, No Iterations 2
GAMG:  Solving for p, Initial residual = 1.34878e-05, Final residual = 3.82373e-07, No Iterations 2
time step continuity errors : sum local = 1.06027e-07, global = 5.87635e-09, cumulative = -0.111535
ExecutionTime = 35.42 s  ClockTime = 35 s

Time = 1979

smoothSolver:  Solving for Ux, Initial residual = 6.75797e-06, Final residual = 5.84539e-07, No Iterations 3
smoothSolver:  Solving for Uy, Initial residual = 1.73327e-06, Final residual = 7.46725e-08, No Iterations 3
GAMG:  Solving for p, Initial residual = 1.51019e-05, Final residual = 3.82687e-07, No Iterations 2
time step continuity errors : sum local = 1.06114e-07, global = 5.63827e-09, cumulative = -0.111535
ExecutionTime = 35.43 s  ClockTime = 35 s

Time = 1980

smoothSolver:  Solving for Ux, Initial residual = 6.74335e-06, Final residual = 5.83322e-07, No Iterations 3
smoothSolver:  Solving for Uy, Initial residual = 1.6995e-06, Final residual = 1.64384e-07, No Iterations 2
GAMG:  Solving for p, Initial residual = 1.30647e-05, Final residual = 3.82744e-07, No Iterations 2
time step continuity errors : sum local = 1.06129e-07, global = 5.83739e-09, cumulative = -0.111535
ExecutionTime = 35.45 s  ClockTime = 36 s

Time = 1981

smoothSolver:  Solving for Ux, Initial residual = 6.72876e-06, Final residual = 5.82103e-07, No Iterations 3
smoothSolver:  Solving for Uy, Initial residual = 1.72052e-06, Final residual = 1.7107e-07, No Iterations 2
GAMG:  Solving for p, Initial residual = 1.34582e-05, Final residual = 3.82245e-07, No Iterations 2
time step continuity errors : sum local = 1.05991e-07, global = 5.75061e-09, cumulative = -0.111535
ExecutionTime = 35.47 s  ClockTime = 36 s

Time = 1982

smoothSolver:  Solving for Ux, Initial residual = 6.7143e-06, Final residual = 5.80921e-07, No Iterations 3
smoothSolver:  Solving for Uy, Initial residual = 1.7273e-06, Final residual = 7.4682e-08, No Iterations 3
GAMG:  Solving for p, Initial residual = 1.50639e-05, Final residual = 3.82414e-07, No Iterations 2
time step continuity errors : sum local = 1.06037e-07, global = 5.51583e-09, cumulative = -0.111535
ExecutionTime = 35.49 s  ClockTime = 36 s

Time = 1983

smoothSolver:  Solving for Ux, Initial residual = 6.69986e-06, Final residual = 5.79756e-07, No Iterations 3
smoothSolver:  Solving for Uy, Initial residual = 1.69335e-06, Final residual = 1.64048e-07, No Iterations 2
GAMG:  Solving for p, Initial residual = 1.30374e-05, Final residual = 3.82145e-07, No Iterations 2
time step continuity errors : sum local = 1.05962e-07, global = 5.73576e-09, cumulative = -0.111535
ExecutionTime = 35.5 s  ClockTime = 36 s

Time = 1984

smoothSolver:  Solving for Ux, Initial residual = 6.68541e-06, Final residual = 5.78601e-07, No Iterations 3
smoothSolver:  Solving for Uy, Initial residual = 1.71419e-06, Final residual = 1.70743e-07, No Iterations 2
GAMG:  Solving for p, Initial residual = 1.34273e-05, Final residual = 3.817e-07, No Iterations 2
time step continuity errors : sum local = 1.05838e-07, global = 5.67231e-09, cumulative = -0.111535
ExecutionTime = 35.52 s  ClockTime = 36 s

Time = 1985

smoothSolver:  Solving for Ux, Initial residual = 6.671e-06, Final residual = 5.77447e-07, No Iterations 3
smoothSolver:  Solving for Uy, Initial residual = 1.72083e-06, Final residual = 7.46776e-08, No Iterations 3
GAMG:  Solving for p, Initial residual = 1.50258e-05, Final residual = 3.81832e-07, No Iterations 2
time step continuity errors : sum local = 1.05875e-07, global = 5.45303e-09, cumulative = -0.111535
ExecutionTime = 35.53 s  ClockTime = 36 s

Time = 1986

smoothSolver:  Solving for Ux, Initial residual = 6.65675e-06, Final residual = 5.76297e-07, No Iterations 3
smoothSolver:  Solving for Uy, Initial residual = 1.68676e-06, Final residual = 1.63682e-07, No Iterations 2
GAMG:  Solving for p, Initial residual = 1.30099e-05, Final residual = 3.81534e-07, No Iterations 2
time step continuity errors : sum local = 1.05792e-07, global = 5.67865e-09, cumulative = -0.111535
ExecutionTime = 35.56 s  ClockTime = 36 s

Time = 1987

smoothSolver:  Solving for Ux, Initial residual = 6.64249e-06, Final residual = 5.75145e-07, No Iterations 3
smoothSolver:  Solving for Uy, Initial residual = 1.70764e-06, Final residual = 1.70397e-07, No Iterations 2
GAMG:  Solving for p, Initial residual = 1.33967e-05, Final residual = 3.8111e-07, No Iterations 2
time step continuity errors : sum local = 1.05674e-07, global = 5.60984e-09, cumulative = -0.111535
ExecutionTime = 35.58 s  ClockTime = 36 s

Time = 1988

smoothSolver:  Solving for Ux, Initial residual = 6.62826e-06, Final residual = 5.73996e-07, No Iterations 3
smoothSolver:  Solving for Uy, Initial residual = 1.71439e-06, Final residual = 7.46672e-08, No Iterations 3
GAMG:  Solving for p, Initial residual = 1.49871e-05, Final residual = 3.81177e-07, No Iterations 2
time step continuity errors : sum local = 1.05692e-07, global = 5.38249e-09, cumulative = -0.111535
ExecutionTime = 35.59 s  ClockTime = 36 s

Time = 1989

smoothSolver:  Solving for Ux, Initial residual = 6.61418e-06, Final residual = 5.7285e-07, No Iterations 3
smoothSolver:  Solving for Uy, Initial residual = 1.68041e-06, Final residual = 1.63329e-07, No Iterations 2
GAMG:  Solving for p, Initial residual = 1.29828e-05, Final residual = 3.80965e-07, No Iterations 2
time step continuity errors : sum local = 1.05633e-07, global = 5.60383e-09, cumulative = -0.111535
ExecutionTime = 35.61 s  ClockTime = 36 s

Time = 1990

smoothSolver:  Solving for Ux, Initial residual = 6.60015e-06, Final residual = 5.71702e-07, No Iterations 3
smoothSolver:  Solving for Uy, Initial residual = 1.70145e-06, Final residual = 1.70064e-07, No Iterations 2
GAMG:  Solving for p, Initial residual = 1.33672e-05, Final residual = 3.80581e-07, No Iterations 2
time step continuity errors : sum local = 1.05526e-07, global = 5.53048e-09, cumulative = -0.111535
ExecutionTime = 35.63 s  ClockTime = 36 s

Time = 1991

smoothSolver:  Solving for Ux, Initial residual = 6.58615e-06, Final residual = 5.70556e-07, No Iterations 3
smoothSolver:  Solving for Uy, Initial residual = 1.70835e-06, Final residual = 7.4661e-08, No Iterations 3
GAMG:  Solving for p, Initial residual = 1.49503e-05, Final residual = 3.80596e-07, No Iterations 2
time step continuity errors : sum local = 1.0553e-07, global = 5.30144e-09, cumulative = -0.111535
ExecutionTime = 35.65 s  ClockTime = 36 s

Time = 1992

smoothSolver:  Solving for Ux, Initial residual = 6.57302e-06, Final residual = 5.69414e-07, No Iterations 3
smoothSolver:  Solving for Uy, Initial residual = 1.67442e-06, Final residual = 1.62985e-07, No Iterations 2
GAMG:  Solving for p, Initial residual = 1.29555e-05, Final residual = 3.80422e-07, No Iterations 2
time step continuity errors : sum local = 1.05481e-07, global = 5.52658e-09, cumulative = -0.111535
ExecutionTime = 35.66 s  ClockTime = 36 s

Time = 1993

smoothSolver:  Solving for Ux, Initial residual = 6.56092e-06, Final residual = 5.6827e-07, No Iterations 3
smoothSolver:  Solving for Uy, Initial residual = 1.69553e-06, Final residual = 7.31327e-08, No Iterations 3
GAMG:  Solving for p, Initial residual = 1.46139e-05, Final residual = 3.81018e-07, No Iterations 2
time step continuity errors : sum local = 1.05646e-07, global = 5.37924e-09, cumulative = -0.111535
ExecutionTime = 35.68 s  ClockTime = 36 s

Time = 1994

smoothSolver:  Solving for Ux, Initial residual = 6.54886e-06, Final residual = 5.67131e-07, No Iterations 3
smoothSolver:  Solving for Uy, Initial residual = 1.66677e-06, Final residual = 1.61972e-07, No Iterations 2
GAMG:  Solving for p, Initial residual = 1.29311e-05, Final residual = 3.80157e-07, No Iterations 2
time step continuity errors : sum local = 1.05407e-07, global = 5.53126e-09, cumulative = -0.111535
ExecutionTime = 35.7 s  ClockTime = 36 s

Time = 1995

smoothSolver:  Solving for Ux, Initial residual = 6.53678e-06, Final residual = 5.6599e-07, No Iterations 3
smoothSolver:  Solving for Uy, Initial residual = 1.68915e-06, Final residual = 7.29448e-08, No Iterations 3
GAMG:  Solving for p, Initial residual = 1.45746e-05, Final residual = 3.79705e-07, No Iterations 2
time step continuity errors : sum local = 1.05281e-07, global = 5.29638e-09, cumulative = -0.111535
ExecutionTime = 35.72 s  ClockTime = 36 s

Time = 1996

smoothSolver:  Solving for Ux, Initial residual = 6.52473e-06, Final residual = 5.64853e-07, No Iterations 3
smoothSolver:  Solving for Uy, Initial residual = 1.66178e-06, Final residual = 1.61611e-07, No Iterations 2
GAMG:  Solving for p, Initial residual = 1.29128e-05, Final residual = 3.79231e-07, No Iterations 2
time step continuity errors : sum local = 1.0515e-07, global = 5.43357e-09, cumulative = -0.111535
ExecutionTime = 35.74 s  ClockTime = 36 s

Time = 1997

smoothSolver:  Solving for Ux, Initial residual = 6.51266e-06, Final residual = 5.63716e-07, No Iterations 3
smoothSolver:  Solving for Uy, Initial residual = 1.6852e-06, Final residual = 7.29252e-08, No Iterations 3
GAMG:  Solving for p, Initial residual = 1.45515e-05, Final residual = 3.79131e-07, No Iterations 2
time step continuity errors : sum local = 1.05122e-07, global = 5.22276e-09, cumulative = -0.111535
ExecutionTime = 35.75 s  ClockTime = 36 s

Time = 1998

smoothSolver:  Solving for Ux, Initial residual = 6.50062e-06, Final residual = 5.62581e-07, No Iterations 3
smoothSolver:  Solving for Uy, Initial residual = 1.65848e-06, Final residual = 1.61408e-07, No Iterations 2
GAMG:  Solving for p, Initial residual = 1.28956e-05, Final residual = 3.79161e-07, No Iterations 2
time step continuity errors : sum local = 1.0513e-07, global = 5.37349e-09, cumulative = -0.111535
ExecutionTime = 35.78 s  ClockTime = 36 s

Time = 1999

smoothSolver:  Solving for Ux, Initial residual = 6.48856e-06, Final residual = 5.61445e-07, No Iterations 3
smoothSolver:  Solving for Uy, Initial residual = 1.68207e-06, Final residual = 7.29313e-08, No Iterations 3
GAMG:  Solving for p, Initial residual = 1.45291e-05, Final residual = 3.79038e-07, No Iterations 2
time step continuity errors : sum local = 1.05095e-07, global = 5.16118e-09, cumulative = -0.111535
ExecutionTime = 35.79 s  ClockTime = 36 s

Time = 2000

smoothSolver:  Solving for Ux, Initial residual = 6.47653e-06, Final residual = 5.60312e-07, No Iterations 3
smoothSolver:  Solving for Uy, Initial residual = 1.65522e-06, Final residual = 1.6121e-07, No Iterations 2
GAMG:  Solving for p, Initial residual = 1.28775e-05, Final residual = 3.78823e-07, No Iterations 2
time step continuity errors : sum local = 1.05035e-07, global = 5.31594e-09, cumulative = -0.111535
ExecutionTime = 35.84 s  ClockTime = 36 s

writeCellCentres writeCellCentres write:
    writing cell-centres field C to 2000
    Writing the x component field of the cell-centres Cx to 2000
    Writing the y component field of the cell-centres Cy to 2000
    Writing the z component field of the cell-centres Cz to 2000
End

