/*---------------------------------------------------------------------------*\
| =========                 |                                                 |
| \\      /  F ield         | OpenFOAM: The Open Source CFD Toolbox           |
|  \\    /   O peration     | Version:  2506                                  |
|   \\  /    A nd           | Website:  www.openfoam.com                      |
|    \\/     M anipulation  |                                                 |
\*---------------------------------------------------------------------------*/
Build  : _f917e866-20250814 OPENFOAM=2506 patch=250814 version=2506
Arch   : "LSB;label=32;scalar=64"
Exec   : simpleFoam
Date   : Jun 30 2026
Time   : 22:53:26
Host   : matheus-PCH-B550M-CR
PID    : 456820
I/O    : uncollated
Case   : /home/matheus/Documentos/Mestrado/modelagem_computacional/bfsDifFinitas/bfs2dData
nProcs : 1
trapFpe: Floating point exception trapping enabled (FOAM_SIGFPE).
fileModificationChecking : Monitoring run-time modified files using timeStampMaster (fileModificationSkew 5, maxFileModificationPolls 20)
allowSystemOperations : Allowing user-supplied system call operations

// * * * * * * * * * * * * * * * * * * * * * * * * * * * * * * * * * * * * * //
Create time

Create mesh for time = 0


SIMPLE: convergence criteria
    field p	 tolerance 0.0001
    field U	 tolerance 1e-06
    field "(k|epsilon|omega|f|v2)"	 tolerance 1e-05

Reading field p

Reading field U

Reading/calculating face flux field phi

Selecting incompressible transport model Newtonian
Selecting turbulence model type laminar
Selecting laminar stress model Stokes
No MRF models present

No finite volume options present

Starting time loop

Sampled set:
    Uref -> raw
    x_by_h_m04 -> raw
    x_by_h_01 -> raw
    x_by_h_04 -> raw
    x_by_h_06 -> raw
    x_by_h_10 -> raw

Time = 1

smoothSolver:  Solving for Ux, Initial residual = 1, Final residual = 0.0815676, No Iterations 5
smoothSolver:  Solving for Uy, Initial residual = 1, Final residual = 0.0646367, No Iterations 2
GAMG:  Solving for p, Initial residual = 1, Final residual = 0.0623229, No Iterations 10
time step continuity errors : sum local = 0.026348, global = -0.00294208, cumulative = -0.00294208
ExecutionTime = 0.34 s  ClockTime = 1 s

Time = 2

smoothSolver:  Solving for Ux, Initial residual = 0.0168981, Final residual = 0.00158839, No Iterations 5
smoothSolver:  Solving for Uy, Initial residual = 0.0309487, Final residual = 0.00206568, No Iterations 6
GAMG:  Solving for p, Initial residual = 0.0754334, Final residual = 0.00405683, No Iterations 4
time step continuity errors : sum local = 0.11312, global = 0.0374685, cumulative = 0.0345264
ExecutionTime = 0.36 s  ClockTime = 1 s

Time = 3

smoothSolver:  Solving for Ux, Initial residual = 0.00436217, Final residual = 0.000375969, No Iterations 5
smoothSolver:  Solving for Uy, Initial residual = 0.0425092, Final residual = 0.00369408, No Iterations 5
GAMG:  Solving for p, Initial residual = 0.196407, Final residual = 0.0195543, No Iterations 2
time step continuity errors : sum local = 0.165428, global = 0.0510963, cumulative = 0.0856227
ExecutionTime = 0.38 s  ClockTime = 1 s

Time = 4

smoothSolver:  Solving for Ux, Initial residual = 0.00196013, Final residual = 0.000169073, No Iterations 5
smoothSolver:  Solving for Uy, Initial residual = 0.0153642, Final residual = 0.00117462, No Iterations 5
GAMG:  Solving for p, Initial residual = 0.117636, Final residual = 0.00685935, No Iterations 4
time step continuity errors : sum local = 0.0291705, global = 0.00739395, cumulative = 0.0930166
ExecutionTime = 0.4 s  ClockTime = 1 s

Time = 5

smoothSolver:  Solving for Ux, Initial residual = 0.00215861, Final residual = 0.000161624, No Iterations 5
smoothSolver:  Solving for Uy, Initial residual = 0.02243, Final residual = 0.00192803, No Iterations 5
GAMG:  Solving for p, Initial residual = 0.0871715, Final residual = 0.00760077, No Iterations 2
time step continuity errors : sum local = 0.0294845, global = -0.00938503, cumulative = 0.0836316
ExecutionTime = 0.42 s  ClockTime = 1 s

Time = 6

smoothSolver:  Solving for Ux, Initial residual = 0.0015666, Final residual = 0.000123083, No Iterations 5
smoothSolver:  Solving for Uy, Initial residual = 0.101899, Final residual = 0.00878116, No Iterations 5
GAMG:  Solving for p, Initial residual = 0.128872, Final residual = 0.0121202, No Iterations 3
time step continuity errors : sum local = 0.0299903, global = 0.00443306, cumulative = 0.0880646
ExecutionTime = 0.44 s  ClockTime = 1 s

Time = 7

smoothSolver:  Solving for Ux, Initial residual = 0.00111155, Final residual = 9.97659e-05, No Iterations 5
smoothSolver:  Solving for Uy, Initial residual = 0.0283991, Final residual = 0.00206675, No Iterations 5
GAMG:  Solving for p, Initial residual = 0.0982194, Final residual = 0.00595961, No Iterations 2
time step continuity errors : sum local = 0.0128951, global = 0.000237075, cumulative = 0.0883017
ExecutionTime = 0.47 s  ClockTime = 1 s

Time = 8

smoothSolver:  Solving for Ux, Initial residual = 0.00101383, Final residual = 9.65272e-05, No Iterations 5
smoothSolver:  Solving for Uy, Initial residual = 0.0279757, Final residual = 0.00199224, No Iterations 5
GAMG:  Solving for p, Initial residual = 0.0682926, Final residual = 0.00637353, No Iterations 1
time step continuity errors : sum local = 0.0124958, global = 0.000117185, cumulative = 0.0884189
ExecutionTime = 0.48 s  ClockTime = 1 s

Time = 9

smoothSolver:  Solving for Ux, Initial residual = 0.000937703, Final residual = 9.12201e-05, No Iterations 5
smoothSolver:  Solving for Uy, Initial residual = 0.0255502, Final residual = 0.00185381, No Iterations 5
GAMG:  Solving for p, Initial residual = 0.0553823, Final residual = 0.00386706, No Iterations 2
time step continuity errors : sum local = 0.00718146, global = -0.000348528, cumulative = 0.0880704
ExecutionTime = 0.5 s  ClockTime = 1 s

Time = 10

smoothSolver:  Solving for Ux, Initial residual = 0.00084062, Final residual = 8.07831e-05, No Iterations 5
smoothSolver:  Solving for Uy, Initial residual = 0.0195814, Final residual = 0.00146802, No Iterations 5
GAMG:  Solving for p, Initial residual = 0.0525237, Final residual = 0.00519529, No Iterations 1
time step continuity errors : sum local = 0.00819596, global = 0.000667066, cumulative = 0.0887374
ExecutionTime = 0.51 s  ClockTime = 1 s

Time = 11

smoothSolver:  Solving for Ux, Initial residual = 0.000790925, Final residual = 7.67336e-05, No Iterations 5
smoothSolver:  Solving for Uy, Initial residual = 0.0159944, Final residual = 0.00125143, No Iterations 5
GAMG:  Solving for p, Initial residual = 0.0456057, Final residual = 0.00179275, No Iterations 2
time step continuity errors : sum local = 0.00269975, global = 0.000126464, cumulative = 0.0888639
ExecutionTime = 0.54 s  ClockTime = 1 s

Time = 12

smoothSolver:  Solving for Ux, Initial residual = 0.000745092, Final residual = 7.20212e-05, No Iterations 5
smoothSolver:  Solving for Uy, Initial residual = 0.0119353, Final residual = 0.000981161, No Iterations 5
GAMG:  Solving for p, Initial residual = 0.0397849, Final residual = 0.0033544, No Iterations 1
time step continuity errors : sum local = 0.00465324, global = 8.98929e-05, cumulative = 0.0889538
ExecutionTime = 0.55 s  ClockTime = 1 s

Time = 13

smoothSolver:  Solving for Ux, Initial residual = 0.000705491, Final residual = 6.84055e-05, No Iterations 5
smoothSolver:  Solving for Uy, Initial residual = 0.00915291, Final residual = 0.000766737, No Iterations 5
GAMG:  Solving for p, Initial residual = 0.0376107, Final residual = 0.00163069, No Iterations 2
time step continuity errors : sum local = 0.00217324, global = -6.90932e-05, cumulative = 0.0888847
ExecutionTime = 0.57 s  ClockTime = 1 s

Time = 14

smoothSolver:  Solving for Ux, Initial residual = 0.000669528, Final residual = 6.53879e-05, No Iterations 5
smoothSolver:  Solving for Uy, Initial residual = 0.00720959, Final residual = 0.000605231, No Iterations 5
GAMG:  Solving for p, Initial residual = 0.0307428, Final residual = 0.0023218, No Iterations 1
time step continuity errors : sum local = 0.00303465, global = 3.51899e-05, cumulative = 0.0889199
ExecutionTime = 0.58 s  ClockTime = 1 s

Time = 15

smoothSolver:  Solving for Ux, Initial residual = 0.000634877, Final residual = 6.20807e-05, No Iterations 5
smoothSolver:  Solving for Uy, Initial residual = 0.00611875, Final residual = 0.000522915, No Iterations 5
GAMG:  Solving for p, Initial residual = 0.0281038, Final residual = 0.00116174, No Iterations 2
time step continuity errors : sum local = 0.00147274, global = -4.44655e-05, cumulative = 0.0888754
ExecutionTime = 0.61 s  ClockTime = 1 s

Time = 16

smoothSolver:  Solving for Ux, Initial residual = 0.000602449, Final residual = 5.90916e-05, No Iterations 5
smoothSolver:  Solving for Uy, Initial residual = 0.00527278, Final residual = 0.000454815, No Iterations 5
GAMG:  Solving for p, Initial residual = 0.024129, Final residual = 0.0018253, No Iterations 1
time step continuity errors : sum local = 0.00224265, global = 0.000119369, cumulative = 0.0889948
ExecutionTime = 0.62 s  ClockTime = 1 s

Time = 17

smoothSolver:  Solving for Ux, Initial residual = 0.000571314, Final residual = 5.59956e-05, No Iterations 5
smoothSolver:  Solving for Uy, Initial residual = 0.00468791, Final residual = 0.000411486, No Iterations 5
GAMG:  Solving for p, Initial residual = 0.0225233, Final residual = 0.000990609, No Iterations 2
time step continuity errors : sum local = 0.00118593, global = 6.24112e-05, cumulative = 0.0890572
ExecutionTime = 0.64 s  ClockTime = 1 s

Time = 18

smoothSolver:  Solving for Ux, Initial residual = 0.000540915, Final residual = 5.2715e-05, No Iterations 5
smoothSolver:  Solving for Uy, Initial residual = 0.00418137, Final residual = 0.000374455, No Iterations 5
GAMG:  Solving for p, Initial residual = 0.0193126, Final residual = 0.00137816, No Iterations 1
time step continuity errors : sum local = 0.00158504, global = 0.000249148, cumulative = 0.0893064
ExecutionTime = 0.66 s  ClockTime = 1 s

Time = 19

smoothSolver:  Solving for Ux, Initial residual = 0.000513763, Final residual = 4.99484e-05, No Iterations 5
smoothSolver:  Solving for Uy, Initial residual = 0.00374305, Final residual = 0.000340097, No Iterations 5
GAMG:  Solving for p, Initial residual = 0.018146, Final residual = 0.000737871, No Iterations 2
time step continuity errors : sum local = 0.000831556, global = 0.000122853, cumulative = 0.0894292
ExecutionTime = 0.68 s  ClockTime = 1 s

Time = 20

smoothSolver:  Solving for Ux, Initial residual = 0.000487314, Final residual = 4.70335e-05, No Iterations 5
smoothSolver:  Solving for Uy, Initial residual = 0.00332226, Final residual = 0.000306702, No Iterations 5
GAMG:  Solving for p, Initial residual = 0.0156405, Final residual = 0.00107279, No Iterations 1
time step continuity errors : sum local = 0.0011601, global = 8.50078e-05, cumulative = 0.0895142
ExecutionTime = 0.69 s  ClockTime = 1 s

Time = 21

smoothSolver:  Solving for Ux, Initial residual = 0.000463501, Final residual = 4.45536e-05, No Iterations 5
smoothSolver:  Solving for Uy, Initial residual = 0.00298726, Final residual = 0.000278949, No Iterations 5
GAMG:  Solving for p, Initial residual = 0.0148869, Final residual = 0.00059722, No Iterations 2
time step continuity errors : sum local = 0.000635591, global = 9.21868e-05, cumulative = 0.0896064
ExecutionTime = 0.71 s  ClockTime = 1 s

Time = 22

smoothSolver:  Solving for Ux, Initial residual = 0.000441174, Final residual = 4.21582e-05, No Iterations 5
smoothSolver:  Solving for Uy, Initial residual = 0.00267597, Final residual = 0.000252573, No Iterations 5
GAMG:  Solving for p, Initial residual = 0.0126268, Final residual = 0.00108957, No Iterations 1
time step continuity errors : sum local = 0.00113877, global = 0.000143338, cumulative = 0.0897497
ExecutionTime = 0.73 s  ClockTime = 1 s

Time = 23

smoothSolver:  Solving for Ux, Initial residual = 0.000420406, Final residual = 3.99803e-05, No Iterations 5
smoothSolver:  Solving for Uy, Initial residual = 0.00243897, Final residual = 0.000232469, No Iterations 5
GAMG:  Solving for p, Initial residual = 0.0121451, Final residual = 0.000599369, No Iterations 2
time step continuity errors : sum local = 0.000618421, global = 0.000100715, cumulative = 0.0898505
ExecutionTime = 0.75 s  ClockTime = 1 s

Time = 24

smoothSolver:  Solving for Ux, Initial residual = 0.000400859, Final residual = 3.7866e-05, No Iterations 5
smoothSolver:  Solving for Uy, Initial residual = 0.00218246, Final residual = 0.000209191, No Iterations 5
GAMG:  Solving for p, Initial residual = 0.0100908, Final residual = 0.000735977, No Iterations 1
time step continuity errors : sum local = 0.000743955, global = 8.14245e-05, cumulative = 0.0899319
ExecutionTime = 0.76 s  ClockTime = 1 s

Time = 25

smoothSolver:  Solving for Ux, Initial residual = 0.000382509, Final residual = 3.59198e-05, No Iterations 5
smoothSolver:  Solving for Uy, Initial residual = 0.00200379, Final residual = 0.000193491, No Iterations 5
GAMG:  Solving for p, Initial residual = 0.00973661, Final residual = 0.000492452, No Iterations 2
time step continuity errors : sum local = 0.000492911, global = 7.62244e-05, cumulative = 0.0900081
ExecutionTime = 0.79 s  ClockTime = 1 s

Time = 26

smoothSolver:  Solving for Ux, Initial residual = 0.000365341, Final residual = 3.40329e-05, No Iterations 5
smoothSolver:  Solving for Uy, Initial residual = 0.00181686, Final residual = 0.000176213, No Iterations 5
GAMG:  Solving for p, Initial residual = 0.00815856, Final residual = 0.000635539, No Iterations 1
time step continuity errors : sum local = 0.000626037, global = 9.2459e-05, cumulative = 0.0901006
ExecutionTime = 0.81 s  ClockTime = 1 s

Time = 27

smoothSolver:  Solving for Ux, Initial residual = 0.000349225, Final residual = 3.23238e-05, No Iterations 5
smoothSolver:  Solving for Uy, Initial residual = 0.00168401, Final residual = 0.000164511, No Iterations 5
GAMG:  Solving for p, Initial residual = 0.00807624, Final residual = 0.000423931, No Iterations 2
time step continuity errors : sum local = 0.000414273, global = 7.32837e-05, cumulative = 0.0901738
ExecutionTime = 0.82 s  ClockTime = 1 s

Time = 28

smoothSolver:  Solving for Ux, Initial residual = 0.0003342, Final residual = 3.0648e-05, No Iterations 5
smoothSolver:  Solving for Uy, Initial residual = 0.0015179, Final residual = 0.000148786, No Iterations 5
GAMG:  Solving for p, Initial residual = 0.00663215, Final residual = 0.000516495, No Iterations 1
time step continuity errors : sum local = 0.000496672, global = 6.11715e-05, cumulative = 0.090235
ExecutionTime = 0.84 s  ClockTime = 1 s

Time = 29

smoothSolver:  Solving for Ux, Initial residual = 0.000320142, Final residual = 2.91544e-05, No Iterations 5
smoothSolver:  Solving for Uy, Initial residual = 0.00141252, Final residual = 0.000139163, No Iterations 5
GAMG:  Solving for p, Initial residual = 0.00663972, Final residual = 0.000380951, No Iterations 2
time step continuity errors : sum local = 0.000363938, global = 6.04846e-05, cumulative = 0.0902955
ExecutionTime = 0.86 s  ClockTime = 1 s

Time = 30

smoothSolver:  Solving for Ux, Initial residual = 0.000307051, Final residual = 2.7713e-05, No Iterations 5
smoothSolver:  Solving for Uy, Initial residual = 0.00128059, Final residual = 0.000126237, No Iterations 5
GAMG:  Solving for p, Initial residual = 0.00546614, Final residual = 0.000479838, No Iterations 1
time step continuity errors : sum local = 0.00045309, global = 5.66937e-05, cumulative = 0.0903522
ExecutionTime = 0.87 s  ClockTime = 1 s

Time = 31

smoothSolver:  Solving for Ux, Initial residual = 0.000294752, Final residual = 2.64258e-05, No Iterations 5
smoothSolver:  Solving for Uy, Initial residual = 0.00119784, Final residual = 0.000118596, No Iterations 5
GAMG:  Solving for p, Initial residual = 0.00553929, Final residual = 0.000351772, No Iterations 2
time step continuity errors : sum local = 0.000330423, global = 5.73371e-05, cumulative = 0.0904095
ExecutionTime = 0.89 s  ClockTime = 1 s

Time = 32

smoothSolver:  Solving for Ux, Initial residual = 0.00028347, Final residual = 2.51925e-05, No Iterations 5
smoothSolver:  Solving for Uy, Initial residual = 0.00108214, Final residual = 0.000107138, No Iterations 5
GAMG:  Solving for p, Initial residual = 0.00454561, Final residual = 0.000454439, No Iterations 1
time step continuity errors : sum local = 0.000422722, global = 4.59541e-05, cumulative = 0.0904555
ExecutionTime = 0.92 s  ClockTime = 1 s

Time = 33

smoothSolver:  Solving for Ux, Initial residual = 0.000272864, Final residual = 2.40646e-05, No Iterations 5
smoothSolver:  Solving for Uy, Initial residual = 0.00101405, Final residual = 0.000100737, No Iterations 5
GAMG:  Solving for p, Initial residual = 0.00462932, Final residual = 0.000278477, No Iterations 2
time step continuity errors : sum local = 0.000257814, global = 4.27053e-05, cumulative = 0.0904982
ExecutionTime = 0.93 s  ClockTime = 1 s

Time = 34

smoothSolver:  Solving for Ux, Initial residual = 0.000263023, Final residual = 2.29848e-05, No Iterations 5
smoothSolver:  Solving for Uy, Initial residual = 0.000920704, Final residual = 9.14197e-05, No Iterations 5
GAMG:  Solving for p, Initial residual = 0.00381453, Final residual = 0.000159068, No Iterations 2
time step continuity errors : sum local = 0.000145977, global = 2.67192e-05, cumulative = 0.0905249
ExecutionTime = 0.95 s  ClockTime = 1 s

Time = 35

smoothSolver:  Solving for Ux, Initial residual = 0.000253788, Final residual = 2.19936e-05, No Iterations 5
smoothSolver:  Solving for Uy, Initial residual = 0.000858983, Final residual = 8.53963e-05, No Iterations 5
GAMG:  Solving for p, Initial residual = 0.00364586, Final residual = 0.00018903, No Iterations 2
time step continuity errors : sum local = 0.000172534, global = 3.00496e-05, cumulative = 0.090555
ExecutionTime = 0.97 s  ClockTime = 1 s

Time = 36

smoothSolver:  Solving for Ux, Initial residual = 0.000245252, Final residual = 2.10833e-05, No Iterations 5
smoothSolver:  Solving for Uy, Initial residual = 0.000791796, Final residual = 7.88331e-05, No Iterations 5
GAMG:  Solving for p, Initial residual = 0.00340716, Final residual = 0.000215055, No Iterations 2
time step continuity errors : sum local = 0.000195483, global = 3.49272e-05, cumulative = 0.0905899
ExecutionTime = 0.99 s  ClockTime = 1 s

Time = 37

smoothSolver:  Solving for Ux, Initial residual = 0.000237248, Final residual = 2.02271e-05, No Iterations 5
smoothSolver:  Solving for Uy, Initial residual = 0.000731139, Final residual = 7.27988e-05, No Iterations 5
GAMG:  Solving for p, Initial residual = 0.00314749, Final residual = 0.000198126, No Iterations 2
time step continuity errors : sum local = 0.000179225, global = 3.25135e-05, cumulative = 0.0906224
ExecutionTime = 1.01 s  ClockTime = 1 s

Time = 38

smoothSolver:  Solving for Ux, Initial residual = 0.000229781, Final residual = 1.94284e-05, No Iterations 5
smoothSolver:  Solving for Uy, Initial residual = 0.000677765, Final residual = 6.74276e-05, No Iterations 5
GAMG:  Solving for p, Initial residual = 0.00293084, Final residual = 0.000184116, No Iterations 2
time step continuity errors : sum local = 0.00016572, global = 2.92051e-05, cumulative = 0.0906516
ExecutionTime = 1.02 s  ClockTime = 1 s

Time = 39

smoothSolver:  Solving for Ux, Initial residual = 0.000222839, Final residual = 1.86858e-05, No Iterations 5
smoothSolver:  Solving for Uy, Initial residual = 0.000629336, Final residual = 6.25566e-05, No Iterations 5
GAMG:  Solving for p, Initial residual = 0.0027444, Final residual = 0.000179161, No Iterations 2
time step continuity errors : sum local = 0.000160531, global = 2.75891e-05, cumulative = 0.0906792
ExecutionTime = 1.05 s  ClockTime = 1 s

Time = 40

smoothSolver:  Solving for Ux, Initial residual = 0.000216378, Final residual = 1.79941e-05, No Iterations 5
smoothSolver:  Solving for Uy, Initial residual = 0.000585129, Final residual = 5.81054e-05, No Iterations 5
GAMG:  Solving for p, Initial residual = 0.00257177, Final residual = 0.000174686, No Iterations 2
time step continuity errors : sum local = 0.000155875, global = 2.64548e-05, cumulative = 0.0907057
ExecutionTime = 1.06 s  ClockTime = 1 s

Time = 41

smoothSolver:  Solving for Ux, Initial residual = 0.000210344, Final residual = 1.73442e-05, No Iterations 5
smoothSolver:  Solving for Uy, Initial residual = 0.000544862, Final residual = 5.40589e-05, No Iterations 5
GAMG:  Solving for p, Initial residual = 0.00240841, Final residual = 0.000167758, No Iterations 2
time step continuity errors : sum local = 0.000149101, global = 2.50813e-05, cumulative = 0.0907307
ExecutionTime = 1.08 s  ClockTime = 1 s

Time = 42

smoothSolver:  Solving for Ux, Initial residual = 0.000204691, Final residual = 1.67311e-05, No Iterations 5
smoothSolver:  Solving for Uy, Initial residual = 0.00050857, Final residual = 5.04111e-05, No Iterations 5
GAMG:  Solving for p, Initial residual = 0.00225937, Final residual = 0.000160662, No Iterations 2
time step continuity errors : sum local = 0.000142254, global = 2.36553e-05, cumulative = 0.0907544
ExecutionTime = 1.11 s  ClockTime = 1 s

Time = 43

smoothSolver:  Solving for Ux, Initial residual = 0.000199365, Final residual = 1.61539e-05, No Iterations 5
smoothSolver:  Solving for Uy, Initial residual = 0.000475876, Final residual = 4.71399e-05, No Iterations 5
GAMG:  Solving for p, Initial residual = 0.0021259, Final residual = 0.000153953, No Iterations 2
time step continuity errors : sum local = 0.000135823, global = 2.23095e-05, cumulative = 0.0907767
ExecutionTime = 1.12 s  ClockTime = 1 s

Time = 44

smoothSolver:  Solving for Ux, Initial residual = 0.000194343, Final residual = 1.56096e-05, No Iterations 5
smoothSolver:  Solving for Uy, Initial residual = 0.000446501, Final residual = 4.42202e-05, No Iterations 5
GAMG:  Solving for p, Initial residual = 0.00200432, Final residual = 0.000147263, No Iterations 2
time step continuity errors : sum local = 0.000129474, global = 2.09076e-05, cumulative = 0.0907976
ExecutionTime = 1.14 s  ClockTime = 1 s

Time = 45

smoothSolver:  Solving for Ux, Initial residual = 0.000189593, Final residual = 1.50949e-05, No Iterations 5
smoothSolver:  Solving for Uy, Initial residual = 0.000420059, Final residual = 4.15852e-05, No Iterations 5
GAMG:  Solving for p, Initial residual = 0.00189092, Final residual = 0.000140654, No Iterations 2
time step continuity errors : sum local = 0.000123245, global = 1.966e-05, cumulative = 0.0908173
ExecutionTime = 1.16 s  ClockTime = 1 s

Time = 46

smoothSolver:  Solving for Ux, Initial residual = 0.000185095, Final residual = 1.46087e-05, No Iterations 5
smoothSolver:  Solving for Uy, Initial residual = 0.000396175, Final residual = 3.91905e-05, No Iterations 5
GAMG:  Solving for p, Initial residual = 0.00178789, Final residual = 0.000134617, No Iterations 2
time step continuity errors : sum local = 0.000117565, global = 1.85685e-05, cumulative = 0.0908358
ExecutionTime = 1.19 s  ClockTime = 1 s

Time = 47

smoothSolver:  Solving for Ux, Initial residual = 0.000180845, Final residual = 1.41496e-05, No Iterations 5
smoothSolver:  Solving for Uy, Initial residual = 0.000374582, Final residual = 3.70042e-05, No Iterations 5
GAMG:  Solving for p, Initial residual = 0.00169943, Final residual = 0.000128729, No Iterations 2
time step continuity errors : sum local = 0.000112068, global = 1.7546e-05, cumulative = 0.0908534
ExecutionTime = 1.2 s  ClockTime = 1 s

Time = 48

smoothSolver:  Solving for Ux, Initial residual = 0.000176838, Final residual = 1.37159e-05, No Iterations 5
smoothSolver:  Solving for Uy, Initial residual = 0.000354872, Final residual = 3.5002e-05, No Iterations 5
GAMG:  Solving for p, Initial residual = 0.00162193, Final residual = 0.000123174, No Iterations 2
time step continuity errors : sum local = 0.000106907, global = 1.65907e-05, cumulative = 0.09087
ExecutionTime = 1.22 s  ClockTime = 1 s

Time = 49

smoothSolver:  Solving for Ux, Initial residual = 0.000173042, Final residual = 1.3306e-05, No Iterations 5
smoothSolver:  Solving for Uy, Initial residual = 0.00033663, Final residual = 3.31592e-05, No Iterations 5
GAMG:  Solving for p, Initial residual = 0.00155083, Final residual = 0.000117973, No Iterations 2
time step continuity errors : sum local = 0.000102098, global = 1.57008e-05, cumulative = 0.0908857
ExecutionTime = 1.24 s  ClockTime = 2 s

Time = 50

smoothSolver:  Solving for Ux, Initial residual = 0.000169455, Final residual = 1.2919e-05, No Iterations 5
smoothSolver:  Solving for Uy, Initial residual = 0.000319641, Final residual = 3.14592e-05, No Iterations 5
GAMG:  Solving for p, Initial residual = 0.00148425, Final residual = 0.000113085, No Iterations 2
time step continuity errors : sum local = 9.75972e-05, global = 1.48746e-05, cumulative = 0.0909005
ExecutionTime = 1.26 s  ClockTime = 2 s

Time = 51

smoothSolver:  Solving for Ux, Initial residual = 0.000166054, Final residual = 1.25534e-05, No Iterations 5
smoothSolver:  Solving for Uy, Initial residual = 0.000303803, Final residual = 2.98906e-05, No Iterations 5
GAMG:  Solving for p, Initial residual = 0.00142152, Final residual = 0.000108465, No Iterations 2
time step continuity errors : sum local = 9.33624e-05, global = 1.41063e-05, cumulative = 0.0909147
ExecutionTime = 1.28 s  ClockTime = 2 s

Time = 52

smoothSolver:  Solving for Ux, Initial residual = 0.000162832, Final residual = 1.22083e-05, No Iterations 5
smoothSolver:  Solving for Uy, Initial residual = 0.00028897, Final residual = 2.8434e-05, No Iterations 5
GAMG:  Solving for p, Initial residual = 0.00136187, Final residual = 0.000104065, No Iterations 2
time step continuity errors : sum local = 8.93494e-05, global = 1.33878e-05, cumulative = 0.090928
ExecutionTime = 1.29 s  ClockTime = 2 s

Time = 53

smoothSolver:  Solving for Ux, Initial residual = 0.00015978, Final residual = 1.18828e-05, No Iterations 5
smoothSolver:  Solving for Uy, Initial residual = 0.00027505, Final residual = 2.70725e-05, No Iterations 5
GAMG:  Solving for p, Initial residual = 0.00130446, Final residual = 9.98527e-05, No Iterations 2
time step continuity errors : sum local = 8.5528e-05, global = 1.27102e-05, cumulative = 0.0909408
ExecutionTime = 1.32 s  ClockTime = 2 s

Time = 54

smoothSolver:  Solving for Ux, Initial residual = 0.000156892, Final residual = 1.15757e-05, No Iterations 5
smoothSolver:  Solving for Uy, Initial residual = 0.000262023, Final residual = 2.57992e-05, No Iterations 5
GAMG:  Solving for p, Initial residual = 0.00124794, Final residual = 9.58152e-05, No Iterations 2
time step continuity errors : sum local = 8.18841e-05, global = 1.20669e-05, cumulative = 0.0909528
ExecutionTime = 1.34 s  ClockTime = 2 s

Time = 55

smoothSolver:  Solving for Ux, Initial residual = 0.000154157, Final residual = 1.12854e-05, No Iterations 5
smoothSolver:  Solving for Uy, Initial residual = 0.000249854, Final residual = 2.46069e-05, No Iterations 5
GAMG:  Solving for p, Initial residual = 0.00119449, Final residual = 9.19344e-05, No Iterations 2
time step continuity errors : sum local = 7.83999e-05, global = 1.14537e-05, cumulative = 0.0909643
ExecutionTime = 1.36 s  ClockTime = 2 s

Time = 56

smoothSolver:  Solving for Ux, Initial residual = 0.00015157, Final residual = 1.10104e-05, No Iterations 5
smoothSolver:  Solving for Uy, Initial residual = 0.000238354, Final residual = 2.34917e-05, No Iterations 5
GAMG:  Solving for p, Initial residual = 0.00114474, Final residual = 8.82032e-05, No Iterations 2
time step continuity errors : sum local = 7.50664e-05, global = 1.08689e-05, cumulative = 0.0909751
ExecutionTime = 1.37 s  ClockTime = 2 s

Time = 57

smoothSolver:  Solving for Ux, Initial residual = 0.000149113, Final residual = 1.0749e-05, No Iterations 5
smoothSolver:  Solving for Uy, Initial residual = 0.00022751, Final residual = 2.24508e-05, No Iterations 5
GAMG:  Solving for p, Initial residual = 0.00109636, Final residual = 8.61046e-05, No Iterations 2
time step continuity errors : sum local = 7.31414e-05, global = 1.01184e-05, cumulative = 0.0909853
ExecutionTime = 1.39 s  ClockTime = 2 s

Time = 58

smoothSolver:  Solving for Ux, Initial residual = 0.000146779, Final residual = 1.05007e-05, No Iterations 5
smoothSolver:  Solving for Uy, Initial residual = 0.000217216, Final residual = 2.14662e-05, No Iterations 5
GAMG:  Solving for p, Initial residual = 0.00104518, Final residual = 8.21552e-05, No Iterations 2
time step continuity errors : sum local = 6.96638e-05, global = 8.3896e-06, cumulative = 0.0909937
ExecutionTime = 1.42 s  ClockTime = 2 s

Time = 59

smoothSolver:  Solving for Ux, Initial residual = 0.000144555, Final residual = 1.02644e-05, No Iterations 5
smoothSolver:  Solving for Uy, Initial residual = 0.000207688, Final residual = 2.05554e-05, No Iterations 5
GAMG:  Solving for p, Initial residual = 0.000996819, Final residual = 7.82625e-05, No Iterations 2
time step continuity errors : sum local = 6.62467e-05, global = 8.25751e-06, cumulative = 0.0910019
ExecutionTime = 1.43 s  ClockTime = 2 s

Time = 60

smoothSolver:  Solving for Ux, Initial residual = 0.000142439, Final residual = 1.00401e-05, No Iterations 5
smoothSolver:  Solving for Uy, Initial residual = 0.000198593, Final residual = 1.96809e-05, No Iterations 5
GAMG:  Solving for p, Initial residual = 0.000955225, Final residual = 7.48884e-05, No Iterations 2
time step continuity errors : sum local = 6.32928e-05, global = 8.14697e-06, cumulative = 0.0910101
ExecutionTime = 1.45 s  ClockTime = 2 s

Time = 61

smoothSolver:  Solving for Ux, Initial residual = 0.000140422, Final residual = 9.82602e-06, No Iterations 5
smoothSolver:  Solving for Uy, Initial residual = 0.000190109, Final residual = 1.88734e-05, No Iterations 5
GAMG:  Solving for p, Initial residual = 0.000912068, Final residual = 7.11217e-05, No Iterations 2
time step continuity errors : sum local = 6.00202e-05, global = 7.82484e-06, cumulative = 0.0910179
ExecutionTime = 1.47 s  ClockTime = 2 s

Time = 62

smoothSolver:  Solving for Ux, Initial residual = 0.000138498, Final residual = 9.62169e-06, No Iterations 5
smoothSolver:  Solving for Uy, Initial residual = 0.000182086, Final residual = 1.81125e-05, No Iterations 5
GAMG:  Solving for p, Initial residual = 0.000872137, Final residual = 6.77308e-05, No Iterations 2
time step continuity errors : sum local = 5.7078e-05, global = 7.61453e-06, cumulative = 0.0910255
ExecutionTime = 1.49 s  ClockTime = 2 s

Time = 63

smoothSolver:  Solving for Ux, Initial residual = 0.000136663, Final residual = 9.42666e-06, No Iterations 5
smoothSolver:  Solving for Uy, Initial residual = 0.000174529, Final residual = 1.73952e-05, No Iterations 5
GAMG:  Solving for p, Initial residual = 0.000834962, Final residual = 6.42816e-05, No Iterations 2
time step continuity errors : sum local = 5.40998e-05, global = 7.069e-06, cumulative = 0.0910326
ExecutionTime = 1.51 s  ClockTime = 2 s

Time = 64

smoothSolver:  Solving for Ux, Initial residual = 0.000134908, Final residual = 9.24001e-06, No Iterations 5
smoothSolver:  Solving for Uy, Initial residual = 0.000167504, Final residual = 1.67272e-05, No Iterations 5
GAMG:  Solving for p, Initial residual = 0.000802136, Final residual = 6.09963e-05, No Iterations 2
time step continuity errors : sum local = 5.12684e-05, global = 8.03034e-06, cumulative = 0.0910406
ExecutionTime = 1.53 s  ClockTime = 2 s

Time = 65

smoothSolver:  Solving for Ux, Initial residual = 0.000133229, Final residual = 9.06189e-06, No Iterations 5
smoothSolver:  Solving for Uy, Initial residual = 0.000160749, Final residual = 1.02928e-05, No Iterations 6
GAMG:  Solving for p, Initial residual = 0.000801392, Final residual = 6.2539e-05, No Iterations 2
time step continuity errors : sum local = 5.25084e-05, global = 6.77296e-06, cumulative = 0.0910474
ExecutionTime = 1.54 s  ClockTime = 2 s

Time = 66

smoothSolver:  Solving for Ux, Initial residual = 0.000131632, Final residual = 8.89157e-06, No Iterations 5
smoothSolver:  Solving for Uy, Initial residual = 0.000150586, Final residual = 9.64605e-06, No Iterations 6
GAMG:  Solving for p, Initial residual = 0.000739404, Final residual = 5.49572e-05, No Iterations 2
time step continuity errors : sum local = 4.60875e-05, global = 7.24706e-06, cumulative = 0.0910546
ExecutionTime = 1.57 s  ClockTime = 2 s

Time = 67

smoothSolver:  Solving for Ux, Initial residual = 0.000130094, Final residual = 8.72796e-06, No Iterations 5
smoothSolver:  Solving for Uy, Initial residual = 0.000143846, Final residual = 9.23498e-06, No Iterations 6
GAMG:  Solving for p, Initial residual = 0.000710564, Final residual = 5.3701e-05, No Iterations 2
time step continuity errors : sum local = 4.49899e-05, global = 6.82438e-06, cumulative = 0.0910614
ExecutionTime = 1.59 s  ClockTime = 2 s

Time = 68

smoothSolver:  Solving for Ux, Initial residual = 0.000128617, Final residual = 8.57061e-06, No Iterations 5
smoothSolver:  Solving for Uy, Initial residual = 0.00013843, Final residual = 8.9109e-06, No Iterations 6
GAMG:  Solving for p, Initial residual = 0.000678235, Final residual = 4.99876e-05, No Iterations 2
time step continuity errors : sum local = 4.18356e-05, global = 6.44207e-06, cumulative = 0.0910679
ExecutionTime = 1.61 s  ClockTime = 2 s

Time = 69

smoothSolver:  Solving for Ux, Initial residual = 0.000127199, Final residual = 8.41945e-06, No Iterations 5
smoothSolver:  Solving for Uy, Initial residual = 0.000133435, Final residual = 8.61408e-06, No Iterations 6
GAMG:  Solving for p, Initial residual = 0.000652998, Final residual = 4.76131e-05, No Iterations 2
time step continuity errors : sum local = 3.98096e-05, global = 6.28062e-06, cumulative = 0.0910742
ExecutionTime = 1.62 s  ClockTime = 2 s

Time = 70

smoothSolver:  Solving for Ux, Initial residual = 0.000125838, Final residual = 8.2743e-06, No Iterations 5
smoothSolver:  Solving for Uy, Initial residual = 0.000128715, Final residual = 8.33356e-06, No Iterations 6
GAMG:  Solving for p, Initial residual = 0.000628542, Final residual = 4.5497e-05, No Iterations 2
time step continuity errors : sum local = 3.80052e-05, global = 6.1277e-06, cumulative = 0.0910803
ExecutionTime = 1.65 s  ClockTime = 2 s

Time = 71

smoothSolver:  Solving for Ux, Initial residual = 0.000124531, Final residual = 8.13476e-06, No Iterations 5
smoothSolver:  Solving for Uy, Initial residual = 0.000124241, Final residual = 8.06787e-06, No Iterations 6
GAMG:  Solving for p, Initial residual = 0.000604856, Final residual = 4.31633e-05, No Iterations 2
time step continuity errors : sum local = 3.60238e-05, global = 5.93602e-06, cumulative = 0.0910862
ExecutionTime = 1.67 s  ClockTime = 2 s

Time = 72

smoothSolver:  Solving for Ux, Initial residual = 0.000123274, Final residual = 8.00035e-06, No Iterations 5
smoothSolver:  Solving for Uy, Initial residual = 0.000120019, Final residual = 7.81789e-06, No Iterations 6
GAMG:  Solving for p, Initial residual = 0.000582433, Final residual = 4.09603e-05, No Iterations 2
time step continuity errors : sum local = 3.4156e-05, global = 5.79952e-06, cumulative = 0.091092
ExecutionTime = 1.69 s  ClockTime = 2 s

Time = 73

smoothSolver:  Solving for Ux, Initial residual = 0.000122065, Final residual = 7.87106e-06, No Iterations 5
smoothSolver:  Solving for Uy, Initial residual = 0.000116051, Final residual = 7.58271e-06, No Iterations 6
GAMG:  Solving for p, Initial residual = 0.00056169, Final residual = 3.90735e-05, No Iterations 2
time step continuity errors : sum local = 3.25561e-05, global = 5.6358e-06, cumulative = 0.0910977
ExecutionTime = 1.71 s  ClockTime = 2 s

Time = 74

smoothSolver:  Solving for Ux, Initial residual = 0.0001209, Final residual = 7.74641e-06, No Iterations 5
smoothSolver:  Solving for Uy, Initial residual = 0.000112318, Final residual = 7.36222e-06, No Iterations 6
GAMG:  Solving for p, Initial residual = 0.000541912, Final residual = 3.72426e-05, No Iterations 2
time step continuity errors : sum local = 3.10062e-05, global = 5.46338e-06, cumulative = 0.0911031
ExecutionTime = 1.73 s  ClockTime = 2 s

Time = 75

smoothSolver:  Solving for Ux, Initial residual = 0.000119778, Final residual = 1.19317e-05, No Iterations 4
smoothSolver:  Solving for Uy, Initial residual = 0.000108796, Final residual = 7.15397e-06, No Iterations 6
GAMG:  Solving for p, Initial residual = 0.000529589, Final residual = 3.47564e-05, No Iterations 2
time step continuity errors : sum local = 2.89149e-05, global = 4.98648e-06, cumulative = 0.0911081
ExecutionTime = 1.75 s  ClockTime = 2 s

Time = 76

smoothSolver:  Solving for Ux, Initial residual = 0.00011877, Final residual = 1.17951e-05, No Iterations 4
smoothSolver:  Solving for Uy, Initial residual = 0.000101561, Final residual = 6.69327e-06, No Iterations 6
GAMG:  Solving for p, Initial residual = 0.000503189, Final residual = 3.6177e-05, No Iterations 2
time step continuity errors : sum local = 3.00843e-05, global = 5.47166e-06, cumulative = 0.0911136
ExecutionTime = 1.76 s  ClockTime = 2 s

Time = 77

smoothSolver:  Solving for Ux, Initial residual = 0.000117791, Final residual = 1.16532e-05, No Iterations 4
smoothSolver:  Solving for Uy, Initial residual = 9.6736e-05, Final residual = 6.38561e-06, No Iterations 6
GAMG:  Solving for p, Initial residual = 0.000469009, Final residual = 3.14543e-05, No Iterations 2
time step continuity errors : sum local = 2.61414e-05, global = 4.32737e-06, cumulative = 0.0911179
ExecutionTime = 1.78 s  ClockTime = 2 s

Time = 78

smoothSolver:  Solving for Ux, Initial residual = 0.000116843, Final residual = 1.15104e-05, No Iterations 4
smoothSolver:  Solving for Uy, Initial residual = 9.39605e-05, Final residual = 6.22096e-06, No Iterations 6
GAMG:  Solving for p, Initial residual = 0.000452067, Final residual = 2.80809e-05, No Iterations 2
time step continuity errors : sum local = 2.33209e-05, global = 4.51387e-06, cumulative = 0.0911224
ExecutionTime = 1.81 s  ClockTime = 2 s

Time = 79

smoothSolver:  Solving for Ux, Initial residual = 0.000115922, Final residual = 1.13695e-05, No Iterations 4
smoothSolver:  Solving for Uy, Initial residual = 9.16503e-05, Final residual = 6.08992e-06, No Iterations 6
GAMG:  Solving for p, Initial residual = 0.000443339, Final residual = 2.8861e-05, No Iterations 2
time step continuity errors : sum local = 2.39543e-05, global = 4.42007e-06, cumulative = 0.0911268
ExecutionTime = 1.82 s  ClockTime = 2 s

Time = 80

smoothSolver:  Solving for Ux, Initial residual = 0.000115031, Final residual = 1.12312e-05, No Iterations 4
smoothSolver:  Solving for Uy, Initial residual = 8.93618e-05, Final residual = 5.95904e-06, No Iterations 6
GAMG:  Solving for p, Initial residual = 0.000428677, Final residual = 2.77141e-05, No Iterations 2
time step continuity errors : sum local = 2.29881e-05, global = 4.08549e-06, cumulative = 0.0911309
ExecutionTime = 1.84 s  ClockTime = 2 s

Time = 81

smoothSolver:  Solving for Ux, Initial residual = 0.000114168, Final residual = 1.10958e-05, No Iterations 4
smoothSolver:  Solving for Uy, Initial residual = 8.70132e-05, Final residual = 5.82192e-06, No Iterations 6
GAMG:  Solving for p, Initial residual = 0.000416944, Final residual = 2.61898e-05, No Iterations 2
time step continuity errors : sum local = 2.17103e-05, global = 4.02753e-06, cumulative = 0.091135
ExecutionTime = 1.86 s  ClockTime = 2 s

Time = 82

smoothSolver:  Solving for Ux, Initial residual = 0.000113331, Final residual = 1.09635e-05, No Iterations 4
smoothSolver:  Solving for Uy, Initial residual = 8.47527e-05, Final residual = 5.68962e-06, No Iterations 6
GAMG:  Solving for p, Initial residual = 0.000407288, Final residual = 2.56397e-05, No Iterations 2
time step continuity errors : sum local = 2.1242e-05, global = 3.9204e-06, cumulative = 0.0911389
ExecutionTime = 1.88 s  ClockTime = 2 s

Time = 83

smoothSolver:  Solving for Ux, Initial residual = 0.000112519, Final residual = 1.08344e-05, No Iterations 4
smoothSolver:  Solving for Uy, Initial residual = 8.26109e-05, Final residual = 5.56415e-06, No Iterations 6
GAMG:  Solving for p, Initial residual = 0.000397176, Final residual = 2.46057e-05, No Iterations 2
time step continuity errors : sum local = 2.03737e-05, global = 3.74285e-06, cumulative = 0.0911426
ExecutionTime = 1.9 s  ClockTime = 2 s

Time = 84

smoothSolver:  Solving for Ux, Initial residual = 0.00011173, Final residual = 1.07084e-05, No Iterations 4
smoothSolver:  Solving for Uy, Initial residual = 8.05673e-05, Final residual = 5.44431e-06, No Iterations 6
GAMG:  Solving for p, Initial residual = 0.00038847, Final residual = 2.36234e-05, No Iterations 2
time step continuity errors : sum local = 1.95494e-05, global = 3.65278e-06, cumulative = 0.0911463
ExecutionTime = 1.92 s  ClockTime = 2 s

Time = 85

smoothSolver:  Solving for Ux, Initial residual = 0.000110964, Final residual = 1.05856e-05, No Iterations 4
smoothSolver:  Solving for Uy, Initial residual = 7.86164e-05, Final residual = 5.32978e-06, No Iterations 6
GAMG:  Solving for p, Initial residual = 0.000380898, Final residual = 2.29335e-05, No Iterations 2
time step continuity errors : sum local = 1.89682e-05, global = 3.54378e-06, cumulative = 0.0911498
ExecutionTime = 1.93 s  ClockTime = 2 s

Time = 86

smoothSolver:  Solving for Ux, Initial residual = 0.000110219, Final residual = 1.04659e-05, No Iterations 4
smoothSolver:  Solving for Uy, Initial residual = 7.67453e-05, Final residual = 5.21977e-06, No Iterations 6
GAMG:  Solving for p, Initial residual = 0.000373519, Final residual = 2.21211e-05, No Iterations 2
time step continuity errors : sum local = 1.82865e-05, global = 3.42383e-06, cumulative = 0.0911532
ExecutionTime = 1.96 s  ClockTime = 2 s

Time = 87

smoothSolver:  Solving for Ux, Initial residual = 0.000109496, Final residual = 1.03492e-05, No Iterations 4
smoothSolver:  Solving for Uy, Initial residual = 7.49493e-05, Final residual = 5.11391e-06, No Iterations 6
GAMG:  Solving for p, Initial residual = 0.000367052, Final residual = 2.13724e-05, No Iterations 2
time step continuity errors : sum local = 1.76584e-05, global = 3.33461e-06, cumulative = 0.0911566
ExecutionTime = 1.98 s  ClockTime = 2 s

Time = 88

smoothSolver:  Solving for Ux, Initial residual = 0.000108792, Final residual = 1.02355e-05, No Iterations 4
smoothSolver:  Solving for Uy, Initial residual = 7.32233e-05, Final residual = 5.01221e-06, No Iterations 6
GAMG:  Solving for p, Initial residual = 0.000361033, Final residual = 2.07192e-05, No Iterations 2
time step continuity errors : sum local = 1.711e-05, global = 3.23978e-06, cumulative = 0.0911598
ExecutionTime = 1.99 s  ClockTime = 2 s

Time = 89

smoothSolver:  Solving for Ux, Initial residual = 0.000108108, Final residual = 1.01247e-05, No Iterations 4
smoothSolver:  Solving for Uy, Initial residual = 7.15646e-05, Final residual = 4.91428e-06, No Iterations 6
GAMG:  Solving for p, Initial residual = 0.000355478, Final residual = 2.00582e-05, No Iterations 2
time step continuity errors : sum local = 1.65559e-05, global = 3.15082e-06, cumulative = 0.091163
ExecutionTime = 2.01 s  ClockTime = 2 s

Time = 90

smoothSolver:  Solving for Ux, Initial residual = 0.000107443, Final residual = 1.00167e-05, No Iterations 4
smoothSolver:  Solving for Uy, Initial residual = 6.9967e-05, Final residual = 4.81975e-06, No Iterations 6
GAMG:  Solving for p, Initial residual = 0.000350335, Final residual = 1.94441e-05, No Iterations 2
time step continuity errors : sum local = 1.60411e-05, global = 3.07032e-06, cumulative = 0.091166
ExecutionTime = 2.04 s  ClockTime = 2 s

Time = 91

smoothSolver:  Solving for Ux, Initial residual = 0.000106795, Final residual = 9.91127e-06, No Iterations 4
smoothSolver:  Solving for Uy, Initial residual = 6.84303e-05, Final residual = 4.72864e-06, No Iterations 6
GAMG:  Solving for p, Initial residual = 0.000345656, Final residual = 1.88802e-05, No Iterations 2
time step continuity errors : sum local = 1.55685e-05, global = 2.99423e-06, cumulative = 0.091169
ExecutionTime = 2.05 s  ClockTime = 2 s

Time = 92

smoothSolver:  Solving for Ux, Initial residual = 0.000106163, Final residual = 9.80825e-06, No Iterations 4
smoothSolver:  Solving for Uy, Initial residual = 6.69502e-05, Final residual = 4.64056e-06, No Iterations 6
GAMG:  Solving for p, Initial residual = 0.000341189, Final residual = 1.83331e-05, No Iterations 2
time step continuity errors : sum local = 1.51102e-05, global = 2.92046e-06, cumulative = 0.0911719
ExecutionTime = 2.07 s  ClockTime = 2 s

Time = 93

smoothSolver:  Solving for Ux, Initial residual = 0.000105547, Final residual = 9.70759e-06, No Iterations 4
smoothSolver:  Solving for Uy, Initial residual = 6.55256e-05, Final residual = 4.55545e-06, No Iterations 6
GAMG:  Solving for p, Initial residual = 0.000337113, Final residual = 1.78376e-05, No Iterations 2
time step continuity errors : sum local = 1.4695e-05, global = 2.85447e-06, cumulative = 0.0911748
ExecutionTime = 2.09 s  ClockTime = 2 s

Time = 94

smoothSolver:  Solving for Ux, Initial residual = 0.000104944, Final residual = 9.60918e-06, No Iterations 4
smoothSolver:  Solving for Uy, Initial residual = 6.41498e-05, Final residual = 4.47306e-06, No Iterations 6
GAMG:  Solving for p, Initial residual = 0.00033321, Final residual = 1.73771e-05, No Iterations 2
time step continuity errors : sum local = 1.43091e-05, global = 2.78919e-06, cumulative = 0.0911776
ExecutionTime = 2.11 s  ClockTime = 2 s

Time = 95

smoothSolver:  Solving for Ux, Initial residual = 0.000104356, Final residual = 9.51297e-06, No Iterations 4
smoothSolver:  Solving for Uy, Initial residual = 6.28234e-05, Final residual = 4.39337e-06, No Iterations 6
GAMG:  Solving for p, Initial residual = 0.000329582, Final residual = 1.69472e-05, No Iterations 2
time step continuity errors : sum local = 1.39489e-05, global = 2.72989e-06, cumulative = 0.0911803
ExecutionTime = 2.13 s  ClockTime = 2 s

Time = 96

smoothSolver:  Solving for Ux, Initial residual = 0.000103782, Final residual = 9.41897e-06, No Iterations 4
smoothSolver:  Solving for Uy, Initial residual = 6.15429e-05, Final residual = 4.31612e-06, No Iterations 6
GAMG:  Solving for p, Initial residual = 0.00032608, Final residual = 1.65434e-05, No Iterations 2
time step continuity errors : sum local = 1.36105e-05, global = 2.67184e-06, cumulative = 0.091183
ExecutionTime = 2.15 s  ClockTime = 2 s

Time = 97

smoothSolver:  Solving for Ux, Initial residual = 0.00010322, Final residual = 9.32701e-06, No Iterations 4
smoothSolver:  Solving for Uy, Initial residual = 6.03062e-05, Final residual = 4.24127e-06, No Iterations 6
GAMG:  Solving for p, Initial residual = 0.000322838, Final residual = 1.6164e-05, No Iterations 2
time step continuity errors : sum local = 1.32927e-05, global = 2.61836e-06, cumulative = 0.0911856
ExecutionTime = 2.17 s  ClockTime = 2 s

Time = 98

smoothSolver:  Solving for Ux, Initial residual = 0.000102672, Final residual = 9.23705e-06, No Iterations 4
smoothSolver:  Solving for Uy, Initial residual = 5.91095e-05, Final residual = 4.16866e-06, No Iterations 6
GAMG:  Solving for p, Initial residual = 0.000319703, Final residual = 1.58043e-05, No Iterations 2
time step continuity errors : sum local = 1.29913e-05, global = 2.56581e-06, cumulative = 0.0911882
ExecutionTime = 2.19 s  ClockTime = 2 s

Time = 99

smoothSolver:  Solving for Ux, Initial residual = 0.000102135, Final residual = 9.14913e-06, No Iterations 4
smoothSolver:  Solving for Uy, Initial residual = 5.79525e-05, Final residual = 4.09823e-06, No Iterations 6
GAMG:  Solving for p, Initial residual = 0.000316763, Final residual = 1.5466e-05, No Iterations 2
time step continuity errors : sum local = 1.2708e-05, global = 2.51707e-06, cumulative = 0.0911907
ExecutionTime = 2.21 s  ClockTime = 2 s

Time = 100

smoothSolver:  Solving for Ux, Initial residual = 0.00010161, Final residual = 9.06308e-06, No Iterations 4
smoothSolver:  Solving for Uy, Initial residual = 5.68317e-05, Final residual = 4.02979e-06, No Iterations 6
GAMG:  Solving for p, Initial residual = 0.000313925, Final residual = 1.5166e-05, No Iterations 2
time step continuity errors : sum local = 1.24564e-05, global = 2.46899e-06, cumulative = 0.0911932
ExecutionTime = 2.23 s  ClockTime = 2 s

Time = 101

smoothSolver:  Solving for Ux, Initial residual = 0.000101096, Final residual = 8.97886e-06, No Iterations 4
smoothSolver:  Solving for Uy, Initial residual = 5.57468e-05, Final residual = 3.96334e-06, No Iterations 6
GAMG:  Solving for p, Initial residual = 0.000311238, Final residual = 1.49031e-05, No Iterations 2
time step continuity errors : sum local = 1.22355e-05, global = 2.42388e-06, cumulative = 0.0911956
ExecutionTime = 2.24 s  ClockTime = 3 s

Time = 102

smoothSolver:  Solving for Ux, Initial residual = 0.000100593, Final residual = 8.89648e-06, No Iterations 4
smoothSolver:  Solving for Uy, Initial residual = 5.46953e-05, Final residual = 3.89874e-06, No Iterations 6
GAMG:  Solving for p, Initial residual = 0.000308624, Final residual = 1.46558e-05, No Iterations 2
time step continuity errors : sum local = 1.20277e-05, global = 2.37937e-06, cumulative = 0.091198
ExecutionTime = 2.27 s  ClockTime = 3 s

Time = 103

smoothSolver:  Solving for Ux, Initial residual = 0.000100101, Final residual = 8.81583e-06, No Iterations 4
smoothSolver:  Solving for Uy, Initial residual = 5.36767e-05, Final residual = 3.83596e-06, No Iterations 6
GAMG:  Solving for p, Initial residual = 0.000306154, Final residual = 1.44207e-05, No Iterations 2
time step continuity errors : sum local = 1.18301e-05, global = 2.33708e-06, cumulative = 0.0912003
ExecutionTime = 2.29 s  ClockTime = 3 s

Time = 104

smoothSolver:  Solving for Ux, Initial residual = 9.96192e-05, Final residual = 8.73683e-06, No Iterations 4
smoothSolver:  Solving for Uy, Initial residual = 5.26892e-05, Final residual = 3.77489e-06, No Iterations 6
GAMG:  Solving for p, Initial residual = 0.000303759, Final residual = 1.41981e-05, No Iterations 2
time step continuity errors : sum local = 1.1643e-05, global = 2.29537e-06, cumulative = 0.0912026
ExecutionTime = 2.3 s  ClockTime = 3 s

Time = 105

smoothSolver:  Solving for Ux, Initial residual = 9.91472e-05, Final residual = 8.65952e-06, No Iterations 4
smoothSolver:  Solving for Uy, Initial residual = 5.1732e-05, Final residual = 3.71551e-06, No Iterations 6
GAMG:  Solving for p, Initial residual = 0.000301493, Final residual = 1.39856e-05, No Iterations 2
time step continuity errors : sum local = 1.14643e-05, global = 2.25529e-06, cumulative = 0.0912049
ExecutionTime = 2.32 s  ClockTime = 3 s

Time = 106

smoothSolver:  Solving for Ux, Initial residual = 9.86848e-05, Final residual = 8.58379e-06, No Iterations 4
smoothSolver:  Solving for Uy, Initial residual = 5.08034e-05, Final residual = 3.65774e-06, No Iterations 6
GAMG:  Solving for p, Initial residual = 0.000299303, Final residual = 1.37841e-05, No Iterations 2
time step continuity errors : sum local = 1.1295e-05, global = 2.21576e-06, cumulative = 0.0912071
ExecutionTime = 2.35 s  ClockTime = 3 s

Time = 107

smoothSolver:  Solving for Ux, Initial residual = 9.82319e-05, Final residual = 8.50959e-06, No Iterations 4
smoothSolver:  Solving for Uy, Initial residual = 4.99027e-05, Final residual = 3.60152e-06, No Iterations 6
GAMG:  Solving for p, Initial residual = 0.000297204, Final residual = 1.35918e-05, No Iterations 2
time step continuity errors : sum local = 1.11333e-05, global = 2.17742e-06, cumulative = 0.0912092
ExecutionTime = 2.36 s  ClockTime = 3 s

Time = 108

smoothSolver:  Solving for Ux, Initial residual = 9.77878e-05, Final residual = 8.43694e-06, No Iterations 4
smoothSolver:  Solving for Uy, Initial residual = 4.90286e-05, Final residual = 3.54681e-06, No Iterations 6
GAMG:  Solving for p, Initial residual = 0.00029517, Final residual = 1.34088e-05, No Iterations 2
time step continuity errors : sum local = 1.09794e-05, global = 2.13961e-06, cumulative = 0.0912114
ExecutionTime = 2.38 s  ClockTime = 3 s

Time = 109

smoothSolver:  Solving for Ux, Initial residual = 9.73527e-05, Final residual = 8.36574e-06, No Iterations 4
smoothSolver:  Solving for Uy, Initial residual = 4.81802e-05, Final residual = 3.49354e-06, No Iterations 6
GAMG:  Solving for p, Initial residual = 0.000293206, Final residual = 1.3233e-05, No Iterations 2
time step continuity errors : sum local = 1.08315e-05, global = 2.10265e-06, cumulative = 0.0912135
ExecutionTime = 2.4 s  ClockTime = 3 s

Time = 110

smoothSolver:  Solving for Ux, Initial residual = 9.69262e-05, Final residual = 8.29598e-06, No Iterations 4
smoothSolver:  Solving for Uy, Initial residual = 4.73563e-05, Final residual = 3.44166e-06, No Iterations 6
GAMG:  Solving for p, Initial residual = 0.000291295, Final residual = 1.30653e-05, No Iterations 2
time step continuity errors : sum local = 1.06904e-05, global = 2.0662e-06, cumulative = 0.0912156
ExecutionTime = 2.42 s  ClockTime = 3 s

Time = 111

smoothSolver:  Solving for Ux, Initial residual = 9.65078e-05, Final residual = 8.22762e-06, No Iterations 4
smoothSolver:  Solving for Uy, Initial residual = 4.65563e-05, Final residual = 3.39113e-06, No Iterations 6
GAMG:  Solving for p, Initial residual = 0.000289448, Final residual = 1.29042e-05, No Iterations 2
time step continuity errors : sum local = 1.05549e-05, global = 2.0304e-06, cumulative = 0.0912176
ExecutionTime = 2.44 s  ClockTime = 3 s

Time = 112

smoothSolver:  Solving for Ux, Initial residual = 9.60979e-05, Final residual = 8.16059e-06, No Iterations 4
smoothSolver:  Solving for Uy, Initial residual = 4.57789e-05, Final residual = 3.34189e-06, No Iterations 6
GAMG:  Solving for p, Initial residual = 0.000287656, Final residual = 1.27506e-05, No Iterations 2
time step continuity errors : sum local = 1.04256e-05, global = 1.99506e-06, cumulative = 0.0912196
ExecutionTime = 2.46 s  ClockTime = 3 s

Time = 113

smoothSolver:  Solving for Ux, Initial residual = 9.56956e-05, Final residual = 8.09492e-06, No Iterations 4
smoothSolver:  Solving for Uy, Initial residual = 4.50234e-05, Final residual = 3.2939e-06, No Iterations 6
GAMG:  Solving for p, Initial residual = 0.000285921, Final residual = 1.26027e-05, No Iterations 2
time step continuity errors : sum local = 1.03012e-05, global = 1.96025e-06, cumulative = 0.0912215
ExecutionTime = 2.47 s  ClockTime = 3 s

Time = 114

smoothSolver:  Solving for Ux, Initial residual = 9.5301e-05, Final residual = 8.0305e-06, No Iterations 4
smoothSolver:  Solving for Uy, Initial residual = 4.4289e-05, Final residual = 3.24711e-06, No Iterations 6
GAMG:  Solving for p, Initial residual = 0.000284237, Final residual = 1.24609e-05, No Iterations 2
time step continuity errors : sum local = 1.01818e-05, global = 1.92586e-06, cumulative = 0.0912235
ExecutionTime = 2.49 s  ClockTime = 3 s

Time = 115

smoothSolver:  Solving for Ux, Initial residual = 9.49138e-05, Final residual = 7.96737e-06, No Iterations 4
smoothSolver:  Solving for Uy, Initial residual = 4.3575e-05, Final residual = 3.20148e-06, No Iterations 6
GAMG:  Solving for p, Initial residual = 0.000282596, Final residual = 1.2324e-05, No Iterations 2
time step continuity errors : sum local = 1.00666e-05, global = 1.89192e-06, cumulative = 0.0912254
ExecutionTime = 2.52 s  ClockTime = 3 s

Time = 116

smoothSolver:  Solving for Ux, Initial residual = 9.45339e-05, Final residual = 7.90545e-06, No Iterations 4
smoothSolver:  Solving for Uy, Initial residual = 4.28808e-05, Final residual = 3.15698e-06, No Iterations 6
GAMG:  Solving for p, Initial residual = 0.000280996, Final residual = 1.21925e-05, No Iterations 2
time step continuity errors : sum local = 9.95591e-06, global = 1.85838e-06, cumulative = 0.0912272
ExecutionTime = 2.54 s  ClockTime = 3 s

Time = 117

smoothSolver:  Solving for Ux, Initial residual = 9.41611e-05, Final residual = 7.84473e-06, No Iterations 4
smoothSolver:  Solving for Uy, Initial residual = 4.22054e-05, Final residual = 3.11355e-06, No Iterations 6
GAMG:  Solving for p, Initial residual = 0.000279438, Final residual = 1.20666e-05, No Iterations 2
time step continuity errors : sum local = 9.84987e-06, global = 1.82525e-06, cumulative = 0.091229
ExecutionTime = 2.55 s  ClockTime = 3 s

Time = 118

smoothSolver:  Solving for Ux, Initial residual = 9.37951e-05, Final residual = 7.78517e-06, No Iterations 4
smoothSolver:  Solving for Uy, Initial residual = 4.15482e-05, Final residual = 3.07116e-06, No Iterations 6
GAMG:  Solving for p, Initial residual = 0.00027792, Final residual = 1.19488e-05, No Iterations 2
time step continuity errors : sum local = 9.75059e-06, global = 1.79251e-06, cumulative = 0.0912308
ExecutionTime = 2.57 s  ClockTime = 3 s

Time = 119

smoothSolver:  Solving for Ux, Initial residual = 9.34358e-05, Final residual = 7.72674e-06, No Iterations 4
smoothSolver:  Solving for Uy, Initial residual = 4.09086e-05, Final residual = 3.02978e-06, No Iterations 6
GAMG:  Solving for p, Initial residual = 0.000276442, Final residual = 1.18417e-05, No Iterations 2
time step continuity errors : sum local = 9.66009e-06, global = 1.76015e-06, cumulative = 0.0912326
ExecutionTime = 2.6 s  ClockTime = 3 s

Time = 120

smoothSolver:  Solving for Ux, Initial residual = 9.3083e-05, Final residual = 7.66943e-06, No Iterations 4
smoothSolver:  Solving for Uy, Initial residual = 4.02859e-05, Final residual = 2.98939e-06, No Iterations 6
GAMG:  Solving for p, Initial residual = 0.000275007, Final residual = 1.17456e-05, No Iterations 2
time step continuity errors : sum local = 9.57867e-06, global = 1.72816e-06, cumulative = 0.0912343
ExecutionTime = 2.62 s  ClockTime = 3 s

Time = 121

smoothSolver:  Solving for Ux, Initial residual = 9.27365e-05, Final residual = 7.61321e-06, No Iterations 4
smoothSolver:  Solving for Uy, Initial residual = 3.96797e-05, Final residual = 2.94993e-06, No Iterations 6
GAMG:  Solving for p, Initial residual = 0.00027361, Final residual = 1.16678e-05, No Iterations 2
time step continuity errors : sum local = 9.51224e-06, global = 1.69655e-06, cumulative = 0.091236
ExecutionTime = 2.63 s  ClockTime = 3 s

Time = 122

smoothSolver:  Solving for Ux, Initial residual = 9.23961e-05, Final residual = 7.55803e-06, No Iterations 4
smoothSolver:  Solving for Uy, Initial residual = 3.9089e-05, Final residual = 2.91138e-06, No Iterations 6
GAMG:  Solving for p, Initial residual = 0.000272247, Final residual = 1.15926e-05, No Iterations 2
time step continuity errors : sum local = 9.44808e-06, global = 1.66532e-06, cumulative = 0.0912377
ExecutionTime = 2.66 s  ClockTime = 3 s

Time = 123

smoothSolver:  Solving for Ux, Initial residual = 9.20619e-05, Final residual = 7.5039e-06, No Iterations 4
smoothSolver:  Solving for Uy, Initial residual = 3.85137e-05, Final residual = 2.87371e-06, No Iterations 6
GAMG:  Solving for p, Initial residual = 0.000270913, Final residual = 1.15192e-05, No Iterations 2
time step continuity errors : sum local = 9.38541e-06, global = 1.63446e-06, cumulative = 0.0912393
ExecutionTime = 2.67 s  ClockTime = 3 s

Time = 124

smoothSolver:  Solving for Ux, Initial residual = 9.17334e-05, Final residual = 7.45075e-06, No Iterations 4
smoothSolver:  Solving for Uy, Initial residual = 3.79532e-05, Final residual = 2.8369e-06, No Iterations 6
GAMG:  Solving for p, Initial residual = 0.000269611, Final residual = 1.14476e-05, No Iterations 2
time step continuity errors : sum local = 9.32423e-06, global = 1.60398e-06, cumulative = 0.0912409
ExecutionTime = 2.7 s  ClockTime = 3 s

Time = 125

smoothSolver:  Solving for Ux, Initial residual = 9.14108e-05, Final residual = 7.39861e-06, No Iterations 4
smoothSolver:  Solving for Uy, Initial residual = 3.74067e-05, Final residual = 2.80092e-06, No Iterations 6
GAMG:  Solving for p, Initial residual = 0.000268349, Final residual = 1.13797e-05, No Iterations 2
time step continuity errors : sum local = 9.26617e-06, global = 1.57411e-06, cumulative = 0.0912425
ExecutionTime = 2.72 s  ClockTime = 3 s

Time = 126

smoothSolver:  Solving for Ux, Initial residual = 9.10937e-05, Final residual = 7.34743e-06, No Iterations 4
smoothSolver:  Solving for Uy, Initial residual = 3.6874e-05, Final residual = 2.76574e-06, No Iterations 6
GAMG:  Solving for p, Initial residual = 0.000267117, Final residual = 1.13109e-05, No Iterations 2
time step continuity errors : sum local = 9.20742e-06, global = 1.54426e-06, cumulative = 0.091244
ExecutionTime = 2.74 s  ClockTime = 3 s

Time = 127

smoothSolver:  Solving for Ux, Initial residual = 9.07822e-05, Final residual = 7.29717e-06, No Iterations 4
smoothSolver:  Solving for Uy, Initial residual = 3.63546e-05, Final residual = 2.73134e-06, No Iterations 6
GAMG:  Solving for p, Initial residual = 0.000265913, Final residual = 1.12437e-05, No Iterations 2
time step continuity errors : sum local = 9.14999e-06, global = 1.51502e-06, cumulative = 0.0912456
ExecutionTime = 2.76 s  ClockTime = 3 s

Time = 128

smoothSolver:  Solving for Ux, Initial residual = 9.0476e-05, Final residual = 7.24785e-06, No Iterations 4
smoothSolver:  Solving for Uy, Initial residual = 3.58481e-05, Final residual = 2.6977e-06, No Iterations 6
GAMG:  Solving for p, Initial residual = 0.000264743, Final residual = 1.11779e-05, No Iterations 2
time step continuity errors : sum local = 9.0938e-06, global = 1.48602e-06, cumulative = 0.091247
ExecutionTime = 2.77 s  ClockTime = 3 s

Time = 129

smoothSolver:  Solving for Ux, Initial residual = 9.0175e-05, Final residual = 7.19942e-06, No Iterations 4
smoothSolver:  Solving for Uy, Initial residual = 3.53546e-05, Final residual = 2.66481e-06, No Iterations 6
GAMG:  Solving for p, Initial residual = 0.000263604, Final residual = 1.11135e-05, No Iterations 2
time step continuity errors : sum local = 9.03886e-06, global = 1.4575e-06, cumulative = 0.0912485
ExecutionTime = 2.8 s  ClockTime = 3 s

Time = 130

smoothSolver:  Solving for Ux, Initial residual = 8.98792e-05, Final residual = 7.15187e-06, No Iterations 4
smoothSolver:  Solving for Uy, Initial residual = 3.48737e-05, Final residual = 2.63264e-06, No Iterations 6
GAMG:  Solving for p, Initial residual = 0.000262492, Final residual = 1.10507e-05, No Iterations 2
time step continuity errors : sum local = 8.98521e-06, global = 1.42932e-06, cumulative = 0.0912499
ExecutionTime = 2.82 s  ClockTime = 3 s

Time = 131

smoothSolver:  Solving for Ux, Initial residual = 8.95883e-05, Final residual = 7.10519e-06, No Iterations 4
smoothSolver:  Solving for Uy, Initial residual = 3.44052e-05, Final residual = 2.60116e-06, No Iterations 6
GAMG:  Solving for p, Initial residual = 0.000261407, Final residual = 1.09893e-05, No Iterations 2
time step continuity errors : sum local = 8.93278e-06, global = 1.40156e-06, cumulative = 0.0912513
ExecutionTime = 2.84 s  ClockTime = 3 s

Time = 132

smoothSolver:  Solving for Ux, Initial residual = 8.93024e-05, Final residual = 7.05935e-06, No Iterations 4
smoothSolver:  Solving for Uy, Initial residual = 3.39492e-05, Final residual = 2.57038e-06, No Iterations 6
GAMG:  Solving for p, Initial residual = 0.000260345, Final residual = 1.09293e-05, No Iterations 2
time step continuity errors : sum local = 8.88145e-06, global = 1.37416e-06, cumulative = 0.0912527
ExecutionTime = 2.85 s  ClockTime = 3 s

Time = 133

smoothSolver:  Solving for Ux, Initial residual = 8.90212e-05, Final residual = 7.01434e-06, No Iterations 4
smoothSolver:  Solving for Uy, Initial residual = 3.35052e-05, Final residual = 2.5403e-06, No Iterations 6
GAMG:  Solving for p, Initial residual = 0.000259309, Final residual = 1.08702e-05, No Iterations 2
time step continuity errors : sum local = 8.831e-06, global = 1.34718e-06, cumulative = 0.0912541
ExecutionTime = 2.87 s  ClockTime = 3 s

Time = 134

smoothSolver:  Solving for Ux, Initial residual = 8.87448e-05, Final residual = 6.97015e-06, No Iterations 4
smoothSolver:  Solving for Uy, Initial residual = 3.30735e-05, Final residual = 2.51089e-06, No Iterations 6
GAMG:  Solving for p, Initial residual = 0.000258296, Final residual = 1.08122e-05, No Iterations 2
time step continuity errors : sum local = 8.78144e-06, global = 1.32058e-06, cumulative = 0.0912554
ExecutionTime = 2.89 s  ClockTime = 3 s

Time = 135

smoothSolver:  Solving for Ux, Initial residual = 8.8473e-05, Final residual = 6.92677e-06, No Iterations 4
smoothSolver:  Solving for Uy, Initial residual = 3.26557e-05, Final residual = 2.48219e-06, No Iterations 6
GAMG:  Solving for p, Initial residual = 0.000257307, Final residual = 1.07551e-05, No Iterations 2
time step continuity errors : sum local = 8.73269e-06, global = 1.29438e-06, cumulative = 0.0912567
ExecutionTime = 2.92 s  ClockTime = 3 s

Time = 136

smoothSolver:  Solving for Ux, Initial residual = 8.82057e-05, Final residual = 6.88418e-06, No Iterations 4
smoothSolver:  Solving for Uy, Initial residual = 3.22529e-05, Final residual = 2.45438e-06, No Iterations 6
GAMG:  Solving for p, Initial residual = 0.000256339, Final residual = 1.0699e-05, No Iterations 2
time step continuity errors : sum local = 8.68477e-06, global = 1.26856e-06, cumulative = 0.0912579
ExecutionTime = 2.94 s  ClockTime = 3 s

Time = 137

smoothSolver:  Solving for Ux, Initial residual = 8.79429e-05, Final residual = 6.84233e-06, No Iterations 4
smoothSolver:  Solving for Uy, Initial residual = 3.1864e-05, Final residual = 2.42756e-06, No Iterations 6
GAMG:  Solving for p, Initial residual = 0.000255392, Final residual = 1.06437e-05, No Iterations 2
time step continuity errors : sum local = 8.63757e-06, global = 1.24315e-06, cumulative = 0.0912592
ExecutionTime = 2.95 s  ClockTime = 3 s

Time = 138

smoothSolver:  Solving for Ux, Initial residual = 8.76844e-05, Final residual = 6.80116e-06, No Iterations 4
smoothSolver:  Solving for Uy, Initial residual = 3.1489e-05, Final residual = 2.40163e-06, No Iterations 6
GAMG:  Solving for p, Initial residual = 0.000254466, Final residual = 1.05892e-05, No Iterations 2
time step continuity errors : sum local = 8.59109e-06, global = 1.21812e-06, cumulative = 0.0912604
ExecutionTime = 2.97 s  ClockTime = 3 s

Time = 139

smoothSolver:  Solving for Ux, Initial residual = 8.74299e-05, Final residual = 6.76065e-06, No Iterations 4
smoothSolver:  Solving for Uy, Initial residual = 3.1128e-05, Final residual = 2.37651e-06, No Iterations 6
GAMG:  Solving for p, Initial residual = 0.000253558, Final residual = 1.05356e-05, No Iterations 2
time step continuity errors : sum local = 8.54529e-06, global = 1.19348e-06, cumulative = 0.0912616
ExecutionTime = 2.99 s  ClockTime = 3 s

Time = 140

smoothSolver:  Solving for Ux, Initial residual = 8.71792e-05, Final residual = 6.72079e-06, No Iterations 4
smoothSolver:  Solving for Uy, Initial residual = 3.07805e-05, Final residual = 2.35218e-06, No Iterations 6
GAMG:  Solving for p, Initial residual = 0.000252672, Final residual = 1.04827e-05, No Iterations 2
time step continuity errors : sum local = 8.50017e-06, global = 1.16924e-06, cumulative = 0.0912628
ExecutionTime = 3.01 s  ClockTime = 3 s

Time = 141

smoothSolver:  Solving for Ux, Initial residual = 8.69322e-05, Final residual = 6.68157e-06, No Iterations 4
smoothSolver:  Solving for Uy, Initial residual = 3.04476e-05, Final residual = 2.32864e-06, No Iterations 6
GAMG:  Solving for p, Initial residual = 0.000251806, Final residual = 1.04306e-05, No Iterations 2
time step continuity errors : sum local = 8.45575e-06, global = 1.14538e-06, cumulative = 0.0912639
ExecutionTime = 3.03 s  ClockTime = 3 s

Time = 142

smoothSolver:  Solving for Ux, Initial residual = 8.66888e-05, Final residual = 6.64297e-06, No Iterations 4
smoothSolver:  Solving for Uy, Initial residual = 3.01315e-05, Final residual = 2.30592e-06, No Iterations 6
GAMG:  Solving for p, Initial residual = 0.000250957, Final residual = 1.03794e-05, No Iterations 2
time step continuity errors : sum local = 8.41203e-06, global = 1.1219e-06, cumulative = 0.091265
ExecutionTime = 3.05 s  ClockTime = 3 s

Time = 143

smoothSolver:  Solving for Ux, Initial residual = 8.6449e-05, Final residual = 6.60499e-06, No Iterations 4
smoothSolver:  Solving for Uy, Initial residual = 2.98307e-05, Final residual = 2.284e-06, No Iterations 6
GAMG:  Solving for p, Initial residual = 0.000250124, Final residual = 1.03288e-05, No Iterations 2
time step continuity errors : sum local = 8.36888e-06, global = 1.09881e-06, cumulative = 0.0912661
ExecutionTime = 3.07 s  ClockTime = 3 s

Time = 144

smoothSolver:  Solving for Ux, Initial residual = 8.62126e-05, Final residual = 6.5676e-06, No Iterations 4
smoothSolver:  Solving for Uy, Initial residual = 2.95437e-05, Final residual = 2.26282e-06, No Iterations 6
GAMG:  Solving for p, Initial residual = 0.000249307, Final residual = 1.02789e-05, No Iterations 2
time step continuity errors : sum local = 8.3263e-06, global = 1.07609e-06, cumulative = 0.0912672
ExecutionTime = 3.09 s  ClockTime = 3 s

Time = 145

smoothSolver:  Solving for Ux, Initial residual = 8.59797e-05, Final residual = 6.53081e-06, No Iterations 4
smoothSolver:  Solving for Uy, Initial residual = 2.92694e-05, Final residual = 2.24233e-06, No Iterations 6
GAMG:  Solving for p, Initial residual = 0.000248505, Final residual = 1.02296e-05, No Iterations 2
time step continuity errors : sum local = 8.28427e-06, global = 1.05375e-06, cumulative = 0.0912683
ExecutionTime = 3.11 s  ClockTime = 3 s

Time = 146

smoothSolver:  Solving for Ux, Initial residual = 8.57502e-05, Final residual = 6.49459e-06, No Iterations 4
smoothSolver:  Solving for Uy, Initial residual = 2.90088e-05, Final residual = 2.22244e-06, No Iterations 6
GAMG:  Solving for p, Initial residual = 0.000247721, Final residual = 1.01811e-05, No Iterations 2
time step continuity errors : sum local = 8.2429e-06, global = 1.03179e-06, cumulative = 0.0912693
ExecutionTime = 3.12 s  ClockTime = 3 s

Time = 147

smoothSolver:  Solving for Ux, Initial residual = 8.55239e-05, Final residual = 6.45894e-06, No Iterations 4
smoothSolver:  Solving for Uy, Initial residual = 2.8759e-05, Final residual = 2.20316e-06, No Iterations 6
GAMG:  Solving for p, Initial residual = 0.000246954, Final residual = 1.01331e-05, No Iterations 2
time step continuity errors : sum local = 8.20204e-06, global = 1.01019e-06, cumulative = 0.0912703
ExecutionTime = 3.15 s  ClockTime = 3 s

Time = 148

smoothSolver:  Solving for Ux, Initial residual = 8.53008e-05, Final residual = 6.42384e-06, No Iterations 4
smoothSolver:  Solving for Uy, Initial residual = 2.85212e-05, Final residual = 2.18455e-06, No Iterations 6
GAMG:  Solving for p, Initial residual = 0.000246199, Final residual = 1.00859e-05, No Iterations 2
time step continuity errors : sum local = 8.16176e-06, global = 9.88967e-07, cumulative = 0.0912713
ExecutionTime = 3.17 s  ClockTime = 3 s

Time = 149

smoothSolver:  Solving for Ux, Initial residual = 8.50809e-05, Final residual = 6.3893e-06, No Iterations 4
smoothSolver:  Solving for Uy, Initial residual = 2.82922e-05, Final residual = 2.16649e-06, No Iterations 6
GAMG:  Solving for p, Initial residual = 0.000245458, Final residual = 1.00394e-05, No Iterations 2
time step continuity errors : sum local = 8.1221e-06, global = 9.68104e-07, cumulative = 0.0912723
ExecutionTime = 3.19 s  ClockTime = 3 s

Time = 150

smoothSolver:  Solving for Ux, Initial residual = 8.4864e-05, Final residual = 6.35528e-06, No Iterations 4
smoothSolver:  Solving for Uy, Initial residual = 2.80689e-05, Final residual = 2.14885e-06, No Iterations 6
GAMG:  Solving for p, Initial residual = 0.000244731, Final residual = 9.99332e-06, No Iterations 2
time step continuity errors : sum local = 8.08283e-06, global = 9.47594e-07, cumulative = 0.0912732
ExecutionTime = 3.21 s  ClockTime = 3 s

Time = 151

smoothSolver:  Solving for Ux, Initial residual = 8.46503e-05, Final residual = 6.3218e-06, No Iterations 4
smoothSolver:  Solving for Uy, Initial residual = 2.78504e-05, Final residual = 2.13158e-06, No Iterations 6
GAMG:  Solving for p, Initial residual = 0.000244016, Final residual = 9.94769e-06, No Iterations 2
time step continuity errors : sum local = 8.04394e-06, global = 9.27436e-07, cumulative = 0.0912741
ExecutionTime = 3.23 s  ClockTime = 3 s

Time = 152

smoothSolver:  Solving for Ux, Initial residual = 8.44395e-05, Final residual = 6.28883e-06, No Iterations 4
smoothSolver:  Solving for Uy, Initial residual = 2.76361e-05, Final residual = 2.11466e-06, No Iterations 6
GAMG:  Solving for p, Initial residual = 0.000243316, Final residual = 9.90252e-06, No Iterations 2
time step continuity errors : sum local = 8.00546e-06, global = 9.07627e-07, cumulative = 0.091275
ExecutionTime = 3.24 s  ClockTime = 4 s

Time = 153

smoothSolver:  Solving for Ux, Initial residual = 8.42316e-05, Final residual = 6.25637e-06, No Iterations 4
smoothSolver:  Solving for Uy, Initial residual = 2.74254e-05, Final residual = 2.09806e-06, No Iterations 6
GAMG:  Solving for p, Initial residual = 0.00024263, Final residual = 9.85786e-06, No Iterations 2
time step continuity errors : sum local = 7.96741e-06, global = 8.88164e-07, cumulative = 0.0912759
ExecutionTime = 3.27 s  ClockTime = 4 s

Time = 154

smoothSolver:  Solving for Ux, Initial residual = 8.40266e-05, Final residual = 6.2244e-06, No Iterations 4
smoothSolver:  Solving for Uy, Initial residual = 2.72182e-05, Final residual = 2.08173e-06, No Iterations 6
GAMG:  Solving for p, Initial residual = 0.000241954, Final residual = 9.81363e-06, No Iterations 2
time step continuity errors : sum local = 7.92975e-06, global = 8.69043e-07, cumulative = 0.0912768
ExecutionTime = 3.29 s  ClockTime = 4 s

Time = 155

smoothSolver:  Solving for Ux, Initial residual = 8.38244e-05, Final residual = 6.19293e-06, No Iterations 4
smoothSolver:  Solving for Uy, Initial residual = 2.70144e-05, Final residual = 2.06567e-06, No Iterations 6
GAMG:  Solving for p, Initial residual = 0.000241289, Final residual = 9.76987e-06, No Iterations 2
time step continuity errors : sum local = 7.89249e-06, global = 8.50259e-07, cumulative = 0.0912776
ExecutionTime = 3.3 s  ClockTime = 4 s

Time = 156

smoothSolver:  Solving for Ux, Initial residual = 8.3625e-05, Final residual = 6.16193e-06, No Iterations 4
smoothSolver:  Solving for Uy, Initial residual = 2.68137e-05, Final residual = 2.04985e-06, No Iterations 6
GAMG:  Solving for p, Initial residual = 0.000240633, Final residual = 9.72644e-06, No Iterations 2
time step continuity errors : sum local = 7.85552e-06, global = 8.31808e-07, cumulative = 0.0912785
ExecutionTime = 3.33 s  ClockTime = 4 s

Time = 157

smoothSolver:  Solving for Ux, Initial residual = 8.34283e-05, Final residual = 6.13141e-06, No Iterations 4
smoothSolver:  Solving for Uy, Initial residual = 2.6616e-05, Final residual = 2.03427e-06, No Iterations 6
GAMG:  Solving for p, Initial residual = 0.000239987, Final residual = 9.68332e-06, No Iterations 2
time step continuity errors : sum local = 7.81883e-06, global = 8.13686e-07, cumulative = 0.0912793
ExecutionTime = 3.35 s  ClockTime = 4 s

Time = 158

smoothSolver:  Solving for Ux, Initial residual = 8.32342e-05, Final residual = 6.10135e-06, No Iterations 4
smoothSolver:  Solving for Uy, Initial residual = 2.6421e-05, Final residual = 2.01893e-06, No Iterations 6
GAMG:  Solving for p, Initial residual = 0.00023935, Final residual = 9.64066e-06, No Iterations 2
time step continuity errors : sum local = 7.78254e-06, global = 7.95888e-07, cumulative = 0.0912801
ExecutionTime = 3.36 s  ClockTime = 4 s

Time = 159

smoothSolver:  Solving for Ux, Initial residual = 8.30428e-05, Final residual = 6.07174e-06, No Iterations 4
smoothSolver:  Solving for Uy, Initial residual = 2.62286e-05, Final residual = 2.00381e-06, No Iterations 6
GAMG:  Solving for p, Initial residual = 0.000238723, Final residual = 9.59876e-06, No Iterations 2
time step continuity errors : sum local = 7.74688e-06, global = 7.78411e-07, cumulative = 0.0912809
ExecutionTime = 3.39 s  ClockTime = 4 s

Time = 160

smoothSolver:  Solving for Ux, Initial residual = 8.2854e-05, Final residual = 6.04258e-06, No Iterations 4
smoothSolver:  Solving for Uy, Initial residual = 2.60388e-05, Final residual = 1.98888e-06, No Iterations 6
GAMG:  Solving for p, Initial residual = 0.000238108, Final residual = 9.55751e-06, No Iterations 2
time step continuity errors : sum local = 7.71179e-06, global = 7.61248e-07, cumulative = 0.0912816
ExecutionTime = 3.41 s  ClockTime = 4 s

Time = 161

smoothSolver:  Solving for Ux, Initial residual = 8.26676e-05, Final residual = 6.01385e-06, No Iterations 4
smoothSolver:  Solving for Uy, Initial residual = 2.58515e-05, Final residual = 1.97415e-06, No Iterations 6
GAMG:  Solving for p, Initial residual = 0.000237502, Final residual = 9.51671e-06, No Iterations 2
time step continuity errors : sum local = 7.67707e-06, global = 7.44397e-07, cumulative = 0.0912824
ExecutionTime = 3.42 s  ClockTime = 4 s

Time = 162

smoothSolver:  Solving for Ux, Initial residual = 8.24837e-05, Final residual = 5.98556e-06, No Iterations 4
smoothSolver:  Solving for Uy, Initial residual = 2.56665e-05, Final residual = 1.95961e-06, No Iterations 6
GAMG:  Solving for p, Initial residual = 0.000236906, Final residual = 9.47646e-06, No Iterations 2
time step continuity errors : sum local = 7.64282e-06, global = 7.27853e-07, cumulative = 0.0912831
ExecutionTime = 3.44 s  ClockTime = 4 s

Time = 163

smoothSolver:  Solving for Ux, Initial residual = 8.23023e-05, Final residual = 5.95769e-06, No Iterations 4
smoothSolver:  Solving for Uy, Initial residual = 2.5484e-05, Final residual = 1.94524e-06, No Iterations 6
GAMG:  Solving for p, Initial residual = 0.000236319, Final residual = 9.43663e-06, No Iterations 2
time step continuity errors : sum local = 7.60894e-06, global = 7.11611e-07, cumulative = 0.0912838
ExecutionTime = 3.46 s  ClockTime = 4 s

Time = 164

smoothSolver:  Solving for Ux, Initial residual = 8.21232e-05, Final residual = 5.93023e-06, No Iterations 4
smoothSolver:  Solving for Uy, Initial residual = 2.53037e-05, Final residual = 1.93107e-06, No Iterations 6
GAMG:  Solving for p, Initial residual = 0.000235741, Final residual = 9.39707e-06, No Iterations 2
time step continuity errors : sum local = 7.57529e-06, global = 6.95666e-07, cumulative = 0.0912845
ExecutionTime = 3.48 s  ClockTime = 4 s

Time = 165

smoothSolver:  Solving for Ux, Initial residual = 8.19465e-05, Final residual = 5.90318e-06, No Iterations 4
smoothSolver:  Solving for Uy, Initial residual = 2.51255e-05, Final residual = 1.91708e-06, No Iterations 6
GAMG:  Solving for p, Initial residual = 0.000235172, Final residual = 9.35785e-06, No Iterations 2
time step continuity errors : sum local = 7.54195e-06, global = 6.80016e-07, cumulative = 0.0912852
ExecutionTime = 3.5 s  ClockTime = 4 s

Time = 166

smoothSolver:  Solving for Ux, Initial residual = 8.17721e-05, Final residual = 5.87654e-06, No Iterations 4
smoothSolver:  Solving for Uy, Initial residual = 2.49494e-05, Final residual = 1.90325e-06, No Iterations 6
GAMG:  Solving for p, Initial residual = 0.000234612, Final residual = 9.31903e-06, No Iterations 2
time step continuity errors : sum local = 7.50895e-06, global = 6.64654e-07, cumulative = 0.0912859
ExecutionTime = 3.52 s  ClockTime = 4 s

Time = 167

smoothSolver:  Solving for Ux, Initial residual = 8.15999e-05, Final residual = 5.85028e-06, No Iterations 4
smoothSolver:  Solving for Uy, Initial residual = 2.47754e-05, Final residual = 1.88959e-06, No Iterations 6
GAMG:  Solving for p, Initial residual = 0.000234059, Final residual = 9.28069e-06, No Iterations 2
time step continuity errors : sum local = 7.47635e-06, global = 6.49577e-07, cumulative = 0.0912865
ExecutionTime = 3.54 s  ClockTime = 4 s

[...]
GAMG:  Solving for p, Initial residual = 7.3597e-05, Final residual = 2.84125e-06, No Iterations 1
time step continuity errors : sum local = 2.13181e-06, global = -2.37288e-08, cumulative = 0.0912172
ExecutionTime = 33.85 s  ClockTime = 34 s

Time = 1960

smoothSolver:  Solving for Ux, Initial residual = 2.56887e-05, Final residual = 2.53948e-06, No Iterations 3
smoothSolver:  Solving for Uy, Initial residual = 1.44612e-06, Final residual = 9.65834e-08, No Iterations 6
GAMG:  Solving for p, Initial residual = 7.35541e-05, Final residual = 2.83954e-06, No Iterations 1
time step continuity errors : sum local = 2.1307e-06, global = -2.37158e-08, cumulative = 0.0912172
ExecutionTime = 33.86 s  ClockTime = 34 s

Time = 1961

smoothSolver:  Solving for Ux, Initial residual = 2.56716e-05, Final residual = 2.53778e-06, No Iterations 3
smoothSolver:  Solving for Uy, Initial residual = 1.44555e-06, Final residual = 9.65452e-08, No Iterations 6
GAMG:  Solving for p, Initial residual = 7.35112e-05, Final residual = 2.83782e-06, No Iterations 1
time step continuity errors : sum local = 2.1296e-06, global = -2.37029e-08, cumulative = 0.0912172
ExecutionTime = 33.89 s  ClockTime = 34 s

Time = 1962

smoothSolver:  Solving for Ux, Initial residual = 2.56546e-05, Final residual = 2.53609e-06, No Iterations 3
smoothSolver:  Solving for Uy, Initial residual = 1.44498e-06, Final residual = 9.6507e-08, No Iterations 6
GAMG:  Solving for p, Initial residual = 7.34684e-05, Final residual = 2.83611e-06, No Iterations 1
time step continuity errors : sum local = 2.12849e-06, global = -2.36899e-08, cumulative = 0.0912171
ExecutionTime = 33.9 s  ClockTime = 34 s

Time = 1963

smoothSolver:  Solving for Ux, Initial residual = 2.56375e-05, Final residual = 2.5344e-06, No Iterations 3
smoothSolver:  Solving for Uy, Initial residual = 1.44441e-06, Final residual = 9.64687e-08, No Iterations 6
GAMG:  Solving for p, Initial residual = 7.34256e-05, Final residual = 2.8344e-06, No Iterations 1
time step continuity errors : sum local = 2.12739e-06, global = -2.3677e-08, cumulative = 0.0912171
ExecutionTime = 33.92 s  ClockTime = 34 s

Time = 1964

smoothSolver:  Solving for Ux, Initial residual = 2.56204e-05, Final residual = 2.53271e-06, No Iterations 3
smoothSolver:  Solving for Uy, Initial residual = 1.44384e-06, Final residual = 9.64305e-08, No Iterations 6
GAMG:  Solving for p, Initial residual = 7.33828e-05, Final residual = 2.83269e-06, No Iterations 1
time step continuity errors : sum local = 2.12629e-06, global = -2.36641e-08, cumulative = 0.0912171
ExecutionTime = 33.93 s  ClockTime = 34 s

Time = 1965

smoothSolver:  Solving for Ux, Initial residual = 2.56034e-05, Final residual = 2.53102e-06, No Iterations 3
smoothSolver:  Solving for Uy, Initial residual = 1.44327e-06, Final residual = 9.63923e-08, No Iterations 6
GAMG:  Solving for p, Initial residual = 7.33401e-05, Final residual = 2.83098e-06, No Iterations 1
time step continuity errors : sum local = 2.12518e-06, global = -2.36511e-08, cumulative = 0.0912171
ExecutionTime = 33.96 s  ClockTime = 34 s

Time = 1966

smoothSolver:  Solving for Ux, Initial residual = 2.55864e-05, Final residual = 2.52934e-06, No Iterations 3
smoothSolver:  Solving for Uy, Initial residual = 1.4427e-06, Final residual = 9.63541e-08, No Iterations 6
GAMG:  Solving for p, Initial residual = 7.32974e-05, Final residual = 2.82927e-06, No Iterations 1
time step continuity errors : sum local = 2.12408e-06, global = -2.36382e-08, cumulative = 0.0912171
ExecutionTime = 33.97 s  ClockTime = 34 s

Time = 1967

smoothSolver:  Solving for Ux, Initial residual = 2.55693e-05, Final residual = 2.52765e-06, No Iterations 3
smoothSolver:  Solving for Uy, Initial residual = 1.44213e-06, Final residual = 9.6316e-08, No Iterations 6
GAMG:  Solving for p, Initial residual = 7.32547e-05, Final residual = 2.82757e-06, No Iterations 1
time step continuity errors : sum local = 2.12298e-06, global = -2.36253e-08, cumulative = 0.091217
ExecutionTime = 33.99 s  ClockTime = 34 s

Time = 1968

smoothSolver:  Solving for Ux, Initial residual = 2.55523e-05, Final residual = 2.52596e-06, No Iterations 3
smoothSolver:  Solving for Uy, Initial residual = 1.44156e-06, Final residual = 9.62778e-08, No Iterations 6
GAMG:  Solving for p, Initial residual = 7.3212e-05, Final residual = 2.82586e-06, No Iterations 1
time step continuity errors : sum local = 2.12188e-06, global = -2.36124e-08, cumulative = 0.091217
ExecutionTime = 34 s  ClockTime = 34 s

Time = 1969

smoothSolver:  Solving for Ux, Initial residual = 2.55353e-05, Final residual = 2.52428e-06, No Iterations 3
smoothSolver:  Solving for Uy, Initial residual = 1.44099e-06, Final residual = 9.62397e-08, No Iterations 6
GAMG:  Solving for p, Initial residual = 7.31694e-05, Final residual = 2.82416e-06, No Iterations 1
time step continuity errors : sum local = 2.12078e-06, global = -2.35995e-08, cumulative = 0.091217
ExecutionTime = 34.01 s  ClockTime = 34 s

Time = 1970

smoothSolver:  Solving for Ux, Initial residual = 2.55183e-05, Final residual = 2.5226e-06, No Iterations 3
smoothSolver:  Solving for Uy, Initial residual = 1.44042e-06, Final residual = 9.62015e-08, No Iterations 6
GAMG:  Solving for p, Initial residual = 7.31268e-05, Final residual = 2.82246e-06, No Iterations 1
time step continuity errors : sum local = 2.11968e-06, global = -2.35866e-08, cumulative = 0.091217
ExecutionTime = 34.04 s  ClockTime = 34 s

Time = 1971

smoothSolver:  Solving for Ux, Initial residual = 2.55013e-05, Final residual = 2.52091e-06, No Iterations 3
smoothSolver:  Solving for Uy, Initial residual = 1.43985e-06, Final residual = 9.61634e-08, No Iterations 6
GAMG:  Solving for p, Initial residual = 7.30842e-05, Final residual = 2.82076e-06, No Iterations 1
time step continuity errors : sum local = 2.11858e-06, global = -2.35737e-08, cumulative = 0.0912169
ExecutionTime = 34.05 s  ClockTime = 34 s

Time = 1972

smoothSolver:  Solving for Ux, Initial residual = 2.54844e-05, Final residual = 2.51923e-06, No Iterations 3
smoothSolver:  Solving for Uy, Initial residual = 1.43928e-06, Final residual = 9.61253e-08, No Iterations 6
GAMG:  Solving for p, Initial residual = 7.30416e-05, Final residual = 2.81906e-06, No Iterations 1
time step continuity errors : sum local = 2.11748e-06, global = -2.35608e-08, cumulative = 0.0912169
ExecutionTime = 34.07 s  ClockTime = 34 s

Time = 1973

smoothSolver:  Solving for Ux, Initial residual = 2.54674e-05, Final residual = 2.51755e-06, No Iterations 3
smoothSolver:  Solving for Uy, Initial residual = 1.43871e-06, Final residual = 9.60872e-08, No Iterations 6
GAMG:  Solving for p, Initial residual = 7.29991e-05, Final residual = 2.81736e-06, No Iterations 1
time step continuity errors : sum local = 2.11638e-06, global = -2.3548e-08, cumulative = 0.0912169
ExecutionTime = 34.09 s  ClockTime = 34 s

Time = 1974

smoothSolver:  Solving for Ux, Initial residual = 2.54504e-05, Final residual = 2.51587e-06, No Iterations 3
smoothSolver:  Solving for Uy, Initial residual = 1.43814e-06, Final residual = 9.60491e-08, No Iterations 6
GAMG:  Solving for p, Initial residual = 7.29566e-05, Final residual = 2.81566e-06, No Iterations 1
time step continuity errors : sum local = 2.11528e-06, global = -2.35351e-08, cumulative = 0.0912169
ExecutionTime = 34.1 s  ClockTime = 34 s

Time = 1975

smoothSolver:  Solving for Ux, Initial residual = 2.54335e-05, Final residual = 2.51419e-06, No Iterations 3
smoothSolver:  Solving for Uy, Initial residual = 1.43758e-06, Final residual = 9.60111e-08, No Iterations 6
GAMG:  Solving for p, Initial residual = 7.29141e-05, Final residual = 2.81396e-06, No Iterations 1
time step continuity errors : sum local = 2.11419e-06, global = -2.35222e-08, cumulative = 0.0912168
ExecutionTime = 34.12 s  ClockTime = 34 s

Time = 1976

smoothSolver:  Solving for Ux, Initial residual = 2.54166e-05, Final residual = 2.51251e-06, No Iterations 3
smoothSolver:  Solving for Uy, Initial residual = 1.43701e-06, Final residual = 9.5973e-08, No Iterations 6
GAMG:  Solving for p, Initial residual = 7.28716e-05, Final residual = 2.81227e-06, No Iterations 1
time step continuity errors : sum local = 2.11309e-06, global = -2.35094e-08, cumulative = 0.0912168
ExecutionTime = 34.13 s  ClockTime = 34 s

Time = 1977

smoothSolver:  Solving for Ux, Initial residual = 2.53996e-05, Final residual = 2.51084e-06, No Iterations 3
smoothSolver:  Solving for Uy, Initial residual = 1.43644e-06, Final residual = 9.5935e-08, No Iterations 6
GAMG:  Solving for p, Initial residual = 7.28292e-05, Final residual = 2.81057e-06, No Iterations 1
time step continuity errors : sum local = 2.11199e-06, global = -2.34965e-08, cumulative = 0.0912168
ExecutionTime = 34.15 s  ClockTime = 34 s

Time = 1978

smoothSolver:  Solving for Ux, Initial residual = 2.53827e-05, Final residual = 2.50916e-06, No Iterations 3
smoothSolver:  Solving for Uy, Initial residual = 1.43587e-06, Final residual = 9.58969e-08, No Iterations 6
GAMG:  Solving for p, Initial residual = 7.27868e-05, Final residual = 2.80888e-06, No Iterations 1
time step continuity errors : sum local = 2.1109e-06, global = -2.34837e-08, cumulative = 0.0912168
ExecutionTime = 34.17 s  ClockTime = 35 s

Time = 1979

smoothSolver:  Solving for Ux, Initial residual = 2.53658e-05, Final residual = 2.50749e-06, No Iterations 3
smoothSolver:  Solving for Uy, Initial residual = 1.4353e-06, Final residual = 9.58589e-08, No Iterations 6
GAMG:  Solving for p, Initial residual = 7.27444e-05, Final residual = 2.80719e-06, No Iterations 1
time step continuity errors : sum local = 2.1098e-06, global = -2.34708e-08, cumulative = 0.0912167
ExecutionTime = 34.18 s  ClockTime = 35 s

Time = 1980

smoothSolver:  Solving for Ux, Initial residual = 2.53489e-05, Final residual = 2.50581e-06, No Iterations 3
smoothSolver:  Solving for Uy, Initial residual = 1.43474e-06, Final residual = 9.58209e-08, No Iterations 6
GAMG:  Solving for p, Initial residual = 7.27021e-05, Final residual = 2.80549e-06, No Iterations 1
time step continuity errors : sum local = 2.10871e-06, global = -2.3458e-08, cumulative = 0.0912167
ExecutionTime = 34.2 s  ClockTime = 35 s

Time = 1981

smoothSolver:  Solving for Ux, Initial residual = 2.5332e-05, Final residual = 2.50414e-06, No Iterations 3
smoothSolver:  Solving for Uy, Initial residual = 1.43417e-06, Final residual = 9.5783e-08, No Iterations 6
GAMG:  Solving for p, Initial residual = 7.26598e-05, Final residual = 2.8038e-06, No Iterations 1
time step continuity errors : sum local = 2.10761e-06, global = -2.34452e-08, cumulative = 0.0912167
ExecutionTime = 34.22 s  ClockTime = 35 s

Time = 1982

smoothSolver:  Solving for Ux, Initial residual = 2.53151e-05, Final residual = 2.50247e-06, No Iterations 3
smoothSolver:  Solving for Uy, Initial residual = 1.4336e-06, Final residual = 9.57451e-08, No Iterations 6
GAMG:  Solving for p, Initial residual = 7.26175e-05, Final residual = 2.80211e-06, No Iterations 1
time step continuity errors : sum local = 2.10652e-06, global = -2.34324e-08, cumulative = 0.0912167
ExecutionTime = 34.23 s  ClockTime = 35 s

Time = 1983

smoothSolver:  Solving for Ux, Initial residual = 2.52983e-05, Final residual = 2.5008e-06, No Iterations 3
smoothSolver:  Solving for Uy, Initial residual = 1.43304e-06, Final residual = 9.57071e-08, No Iterations 6
GAMG:  Solving for p, Initial residual = 7.25752e-05, Final residual = 2.80043e-06, No Iterations 1
time step continuity errors : sum local = 2.10543e-06, global = -2.34195e-08, cumulative = 0.0912167
ExecutionTime = 34.25 s  ClockTime = 35 s

Time = 1984

smoothSolver:  Solving for Ux, Initial residual = 2.52814e-05, Final residual = 2.49913e-06, No Iterations 3
smoothSolver:  Solving for Uy, Initial residual = 1.43247e-06, Final residual = 9.56692e-08, No Iterations 6
GAMG:  Solving for p, Initial residual = 7.2533e-05, Final residual = 2.79874e-06, No Iterations 1
time step continuity errors : sum local = 2.10434e-06, global = -2.34067e-08, cumulative = 0.0912166
ExecutionTime = 34.27 s  ClockTime = 35 s

Time = 1985

smoothSolver:  Solving for Ux, Initial residual = 2.52646e-05, Final residual = 2.49746e-06, No Iterations 3
smoothSolver:  Solving for Uy, Initial residual = 1.4319e-06, Final residual = 9.56313e-08, No Iterations 6
GAMG:  Solving for p, Initial residual = 7.24907e-05, Final residual = 2.79705e-06, No Iterations 1
time step continuity errors : sum local = 2.10324e-06, global = -2.33939e-08, cumulative = 0.0912166
ExecutionTime = 34.28 s  ClockTime = 35 s

Time = 1986

smoothSolver:  Solving for Ux, Initial residual = 2.52477e-05, Final residual = 2.49579e-06, No Iterations 3
smoothSolver:  Solving for Uy, Initial residual = 1.43134e-06, Final residual = 9.55935e-08, No Iterations 6
GAMG:  Solving for p, Initial residual = 7.24486e-05, Final residual = 2.79537e-06, No Iterations 1
time step continuity errors : sum local = 2.10215e-06, global = -2.33812e-08, cumulative = 0.0912166
ExecutionTime = 34.3 s  ClockTime = 35 s

Time = 1987

smoothSolver:  Solving for Ux, Initial residual = 2.52309e-05, Final residual = 2.49412e-06, No Iterations 3
smoothSolver:  Solving for Uy, Initial residual = 1.43077e-06, Final residual = 9.55556e-08, No Iterations 6
GAMG:  Solving for p, Initial residual = 7.24064e-05, Final residual = 2.79369e-06, No Iterations 1
time step continuity errors : sum local = 2.10106e-06, global = -2.33684e-08, cumulative = 0.0912166
ExecutionTime = 34.32 s  ClockTime = 35 s

Time = 1988

smoothSolver:  Solving for Ux, Initial residual = 2.52141e-05, Final residual = 2.49245e-06, No Iterations 3
smoothSolver:  Solving for Uy, Initial residual = 1.43021e-06, Final residual = 9.55177e-08, No Iterations 6
GAMG:  Solving for p, Initial residual = 7.23643e-05, Final residual = 2.792e-06, No Iterations 1
time step continuity errors : sum local = 2.09997e-06, global = -2.33556e-08, cumulative = 0.0912165
ExecutionTime = 34.33 s  ClockTime = 35 s

Time = 1989

smoothSolver:  Solving for Ux, Initial residual = 2.51973e-05, Final residual = 2.49079e-06, No Iterations 3
smoothSolver:  Solving for Uy, Initial residual = 1.42964e-06, Final residual = 9.54799e-08, No Iterations 6
GAMG:  Solving for p, Initial residual = 7.23221e-05, Final residual = 2.79032e-06, No Iterations 1
time step continuity errors : sum local = 2.09888e-06, global = -2.33428e-08, cumulative = 0.0912165
ExecutionTime = 34.35 s  ClockTime = 35 s

Time = 1990

smoothSolver:  Solving for Ux, Initial residual = 2.51805e-05, Final residual = 2.48912e-06, No Iterations 3
smoothSolver:  Solving for Uy, Initial residual = 1.42907e-06, Final residual = 9.54421e-08, No Iterations 6
GAMG:  Solving for p, Initial residual = 7.22801e-05, Final residual = 2.78864e-06, No Iterations 1
time step continuity errors : sum local = 2.09779e-06, global = -2.33301e-08, cumulative = 0.0912165
ExecutionTime = 34.36 s  ClockTime = 35 s

Time = 1991

smoothSolver:  Solving for Ux, Initial residual = 2.51637e-05, Final residual = 2.48746e-06, No Iterations 3
smoothSolver:  Solving for Uy, Initial residual = 1.42851e-06, Final residual = 9.54043e-08, No Iterations 6
GAMG:  Solving for p, Initial residual = 7.2238e-05, Final residual = 2.78696e-06, No Iterations 1
time step continuity errors : sum local = 2.09671e-06, global = -2.33173e-08, cumulative = 0.0912165
ExecutionTime = 34.39 s  ClockTime = 35 s

Time = 1992

smoothSolver:  Solving for Ux, Initial residual = 2.51469e-05, Final residual = 2.4858e-06, No Iterations 3
smoothSolver:  Solving for Uy, Initial residual = 1.42794e-06, Final residual = 9.53665e-08, No Iterations 6
GAMG:  Solving for p, Initial residual = 7.2196e-05, Final residual = 2.78529e-06, No Iterations 1
time step continuity errors : sum local = 2.09562e-06, global = -2.33045e-08, cumulative = 0.0912164
ExecutionTime = 34.4 s  ClockTime = 35 s

Time = 1993

smoothSolver:  Solving for Ux, Initial residual = 2.51301e-05, Final residual = 2.48414e-06, No Iterations 3
smoothSolver:  Solving for Uy, Initial residual = 1.42738e-06, Final residual = 9.53287e-08, No Iterations 6
GAMG:  Solving for p, Initial residual = 7.2154e-05, Final residual = 2.78361e-06, No Iterations 1
time step continuity errors : sum local = 2.09453e-06, global = -2.32918e-08, cumulative = 0.0912164
ExecutionTime = 34.41 s  ClockTime = 35 s

Time = 1994

smoothSolver:  Solving for Ux, Initial residual = 2.51133e-05, Final residual = 2.48248e-06, No Iterations 3
smoothSolver:  Solving for Uy, Initial residual = 1.42681e-06, Final residual = 9.52909e-08, No Iterations 6
GAMG:  Solving for p, Initial residual = 7.2112e-05, Final residual = 2.78193e-06, No Iterations 1
time step continuity errors : sum local = 2.09344e-06, global = -2.32791e-08, cumulative = 0.0912164
ExecutionTime = 34.43 s  ClockTime = 35 s

Time = 1995

smoothSolver:  Solving for Ux, Initial residual = 2.50966e-05, Final residual = 2.48082e-06, No Iterations 3
smoothSolver:  Solving for Uy, Initial residual = 1.42625e-06, Final residual = 9.52531e-08, No Iterations 6
GAMG:  Solving for p, Initial residual = 7.207e-05, Final residual = 2.78026e-06, No Iterations 1
time step continuity errors : sum local = 2.09236e-06, global = -2.32663e-08, cumulative = 0.0912164
ExecutionTime = 34.45 s  ClockTime = 35 s

Time = 1996

smoothSolver:  Solving for Ux, Initial residual = 2.50798e-05, Final residual = 2.47916e-06, No Iterations 3
smoothSolver:  Solving for Uy, Initial residual = 1.42569e-06, Final residual = 9.52154e-08, No Iterations 6
GAMG:  Solving for p, Initial residual = 7.20281e-05, Final residual = 2.77859e-06, No Iterations 1
time step continuity errors : sum local = 2.09127e-06, global = -2.32536e-08, cumulative = 0.0912164
ExecutionTime = 34.47 s  ClockTime = 35 s

Time = 1997

smoothSolver:  Solving for Ux, Initial residual = 2.50631e-05, Final residual = 2.4775e-06, No Iterations 3
smoothSolver:  Solving for Uy, Initial residual = 1.42512e-06, Final residual = 9.51776e-08, No Iterations 6
GAMG:  Solving for p, Initial residual = 7.19862e-05, Final residual = 2.77692e-06, No Iterations 1
time step continuity errors : sum local = 2.09019e-06, global = -2.32409e-08, cumulative = 0.0912163
ExecutionTime = 34.48 s  ClockTime = 35 s

Time = 1998

smoothSolver:  Solving for Ux, Initial residual = 2.50464e-05, Final residual = 2.47584e-06, No Iterations 3
smoothSolver:  Solving for Uy, Initial residual = 1.42456e-06, Final residual = 9.51399e-08, No Iterations 6
GAMG:  Solving for p, Initial residual = 7.19443e-05, Final residual = 2.77524e-06, No Iterations 1
time step continuity errors : sum local = 2.0891e-06, global = -2.32282e-08, cumulative = 0.0912163
ExecutionTime = 34.5 s  ClockTime = 35 s

Time = 1999

smoothSolver:  Solving for Ux, Initial residual = 2.50297e-05, Final residual = 2.47419e-06, No Iterations 3
smoothSolver:  Solving for Uy, Initial residual = 1.42399e-06, Final residual = 9.51022e-08, No Iterations 6
GAMG:  Solving for p, Initial residual = 7.19025e-05, Final residual = 2.77357e-06, No Iterations 1
time step continuity errors : sum local = 2.08802e-06, global = -2.32155e-08, cumulative = 0.0912163
ExecutionTime = 34.52 s  ClockTime = 35 s

Time = 2000

smoothSolver:  Solving for Ux, Initial residual = 2.5013e-05, Final residual = 2.47253e-06, No Iterations 3
smoothSolver:  Solving for Uy, Initial residual = 1.42343e-06, Final residual = 9.50645e-08, No Iterations 6
GAMG:  Solving for p, Initial residual = 7.18607e-05, Final residual = 2.77191e-06, No Iterations 1
time step continuity errors : sum local = 2.08693e-06, global = -2.32028e-08, cumulative = 0.0912163
ExecutionTime = 34.56 s  ClockTime = 35 s

writeCellCentres writeCellCentres write:
    writing cell-centres field C to 2000
    Writing the x component field of the cell-centres Cx to 2000
    Writing the y component field of the cell-centres Cy to 2000
    Writing the z component field of the cell-centres Cz to 2000
End

